group   solvent type 1 2
1500 atoms in group solvent
group   water   type 1 2
1500 atoms in group water
group   ions    type 3 4
18 atoms in group ions
group   wall    type 5 6 7
0 atoms in group wall
group   flying  type 8 9 10 11
0 atoms in group flying
group   eq_run  union solvent ions flying
1518 atoms in group eq_run

######################################################################
pair_style   lj/cut/coul/long 9.000000 9.000000
kspace_style pppm 0.0001

# LJ JC_SPCE (neq? False)
# real particles
pair_coeff  1 1     0.155354    3.169   9.0   # O O
pair_coeff  3 3     0.352644    2.1595  9.0   # Na Na
pair_coeff  4 4     0.0127851   4.8305  9.0   # Cl Cl
# flying particles
pair_coeff  8 8     0.155354    3.169   9.0   # O O
pair_coeff  10 10   0.352644    2.1595  9.0   # Na Na
pair_coeff  11 11   0.0127851   4.8305  9.0   # Cl Cl
# wall particles: not exist now
pair_coeff  * 5 0 0 9.0
pair_coeff  * 6 0 0 9.0
pair_coeff  * 7 0 0 9.0
# hydrogens
pair_coeff  * 2 0 0 9.0 # hydrogen
pair_coeff  * 9 0 0 9.0 # flying hydrogen

# intramolecular force field
bond_coeff  1   100000   1.0
angle_coeff 1   100000   109.470000

pair_modify  tail no shift yes mix arithmetic # LB mixing rule
neigh_modify delay 4 every 1 check yes page 500000 one 50000
######################################################################
fix fOHs        all    shake 0.00001 40 50000 b 1 a 1
       0 = # of size 2 clusters
       0 = # of size 3 clusters
       0 = # of size 4 clusters
     500 = # of frozen angles
  find clusters CPU = 0.001 seconds
timestep 2.000000
thermo 2000
fix  eqmd   eq_run npt temp 298.150000 298.150000 200.000000 iso 1.000000 1.000000 2000.000000
run 2000 # (neq? False) MD run
PPPM initialization ...
  G vector (1/distance) = 0.29742635
  grid = 15 15 15
  stencil order = 5
  estimated absolute RMS force accuracy = 0.027759634
  estimated relative force accuracy = 8.3597314e-05
  3d grid and FFT values/proc = 1728 150
SHAKE stats (type/ave/delta/count) on step 4000
Step Temp Atoms Density TotEng PotEng KinEng E_coul E_vdwl E_long E_bond E_angle E_dihed Enthalpy Press
4000   311.390521     1518     1.020292 -6254.979594 -7198.954920   943.975326 22575.172421  1218.990033 -30993.117373     0.000000     0.000000     0.000000 -6174.445973   355.892442
Loop time of 3.13764 on 27 procs for 2000 steps with 1518 atoms

unfix fOHs
unfix    eqmd

group   solvent type 1 2
1500 atoms in group solvent
group   water   type 1 2
1500 atoms in group water
group   ions    type 3 4
18 atoms in group ions
group   wall    type 5 6 7
0 atoms in group wall
group   flying  type 8 9 10 11
0 atoms in group flying
group   eq_run  union solvent ions flying
1518 atoms in group eq_run

######################################################################
pair_style   lj/cut/coul/long 9.000000 9.000000
kspace_style pppm 0.0001

# LJ JC_SPCE (neq? False)
# real particles
pair_coeff  1 1     0.155354    3.169   9.0   # O O
pair_coeff  3 3     0.352644    2.1595  9.0   # Na Na
pair_coeff  4 4     0.0127851   4.8305  9.0   # Cl Cl
# flying particles
pair_coeff  8 8     0.155354    3.169   9.0   # O O
pair_coeff  10 10   0.352644    2.1595  9.0   # Na Na
pair_coeff  11 11   0.0127851   4.8305  9.0   # Cl Cl
# wall particles: not exist now
pair_coeff  * 5 0 0 9.0
pair_coeff  * 6 0 0 9.0
pair_coeff  * 7 0 0 9.0
# hydrogens
pair_coeff  * 2 0 0 9.0 # hydrogen
pair_coeff  * 9 0 0 9.0 # flying hydrogen

# intramolecular force field
bond_coeff  1   100000   1.0
angle_coeff 1   100000   109.470000

pair_modify  tail no shift yes mix arithmetic # LB mixing rule
neigh_modify delay 4 every 1 check yes page 500000 one 50000
######################################################################
# shake is off; should be a dummy run
timestep 2.000000
thermo 2000
fix  eqmd   eq_run npt temp 298.150000 298.150000 200.000000 iso 1.000000 1.000000 2000.000000
run 0 # (neq? False) MD run
PPPM initialization ...
  G vector (1/distance) = 0.29816095
  grid = 15 15 15
  stencil order = 5
  estimated absolute RMS force accuracy = 0.027111459
  estimated relative force accuracy = 8.1645354e-05
  3d grid and FFT values/proc = 1728 150
Step Temp Atoms Density TotEng PotEng KinEng E_coul E_vdwl E_long E_bond E_angle E_dihed Enthalpy Press
6000   201.124588     1518     1.044683 -6280.404761 -7189.867794   909.463033 22613.076943  1266.714616 -31069.707417     0.048057     0.000007     0.000000 -1073.958620 23558.250386
Loop time of 2.75922e-06 on 27 procs for 0 steps with 1518 atoms

unfix    eqmd
#chosen_cation deletion_move 0.271920 5.639140 -11.883629 # select_molecule
#chosen_anion deletion_move -5.729022 1.952115 10.754113 # select_molecule
# selected_velocity_salt 1503 cation vel 0.003229 -0.000118 -0.000459
# selected_velocity_salt 1518 anion vel -0.001664 -0.003359 0.001175
group widom_test id  1503 1518 # select_molecule
2 atoms in group widom_test
set atom 1503 type 10
Setting atom values ...
  1 settings made for type
set atom 1518 type 11
Setting atom values ...
  1 settings made for type
run 0 post no # done selecting a flying molecule
PPPM initialization ...
  G vector (1/distance) = 0.29816095
  grid = 15 15 15
  stencil order = 5
  estimated absolute RMS force accuracy = 0.027111459
  estimated relative force accuracy = 8.1645354e-05
  3d grid and FFT values/proc = 1728 150
Step Temp Atoms Density TotEng PotEng KinEng E_coul E_vdwl E_long E_bond E_angle E_dihed Enthalpy Press
6000   201.124588     1518     1.044683 -6308.437247 -7217.900280   909.463033 22613.076943  1238.682131 -31069.707417     0.048057     0.000007     0.000000 -1251.163752 22883.270477
Loop time of 2.66922e-06 on 27 procs for 0 steps with 1518 atoms

group noneq_run_rigid    intersect   all         water               # select_salt no selection
1500 atoms in group noneq_run_rigid
group noneq_run_pre      subtract    all         noneq_run_rigid     # select_salt no selection
18 atoms in group noneq_run_pre
group noneq_run          subtract    noneq_run_pre   widom_test      # select_salt no selection
16 atoms in group noneq_run
group noneq_run_pre      delete
run 0 post no # mom rev random number
PPPM initialization ...
  G vector (1/distance) = 0.29816095
  grid = 15 15 15
  stencil order = 5
  estimated absolute RMS force accuracy = 0.027111459
  estimated relative force accuracy = 8.1645354e-05
  3d grid and FFT values/proc = 1728 150
Step Temp Atoms Density TotEng PotEng KinEng E_coul E_vdwl E_long E_bond E_angle E_dihed Enthalpy Press
6000   201.124588     1518     1.044683 -6308.437247 -7217.900280   909.463033 22613.076943  1238.682131 -31069.707417     0.048057     0.000007     0.000000 -1251.163752 22883.270477
Loop time of 4.94237e-06 on 27 procs for 0 steps with 1518 atoms

######################################################################
pair_style   lj/cut/coul/long/neq 14.000000 14.000000 6000 10000 3.000000 7 0 0 1.000000 3.000000 11 1.000000
kspace_style pppm/neq 0.0001 6000 10000 3.000000 7 0 0 1.000000 3.000000 11 1.000000

# LJ JC_SPCE (neq? True)
# real particles
pair_coeff  1 1     0.155354    3.169   14.0   # O O
pair_coeff  3 3     0.352644    2.1595  14.0   # Na Na
pair_coeff  4 4     0.0127851   4.8305  14.0   # Cl Cl
# flying particles
pair_coeff  8 8     0.155354    3.169   14.0   # O O
pair_coeff  10 10   0.352644    2.1595  14.0   # Na Na
pair_coeff  11 11   0.0127851   4.8305  14.0   # Cl Cl
# wall particles: not exist now
pair_coeff  * 5 0 0 14.0
pair_coeff  * 6 0 0 14.0
pair_coeff  * 7 0 0 14.0
# hydrogens
pair_coeff  * 2 0 0 14.0 # hydrogen
pair_coeff  * 9 0 0 14.0 # flying hydrogen

# intramolecular force field
bond_coeff  1   100000   1.0
angle_coeff 1   100000   109.470000

pair_modify  tail no shift yes mix arithmetic # LB mixing rule
neigh_modify delay 2 every 1 check yes page 500000 one 50000
######################################################################
timestep 4.000000
fix  eqmd  noneq_run_rigid     rigid/nve molecule  # rigid water
  500 rigid bodies with 1500 atoms
fix  eqions  noneq_run           nve                 # nve for non-rigid
run 10000 # (neq? True) MD run
4D PPPM initialization ...
  G vector (1/distance) = 0.19384192
  grid = 10 10 10
  stencil order = 5
  estimated absolute RMS force accuracy = 0.018453451
  estimated relative force accuracy = 5.557202e-05
  3d grid and FFT values/proc = 729 80
  update every 1 steps, delay 2 steps, check yes
Step Temp Atoms Density TotEng PotEng KinEng E_coul E_vdwl E_long E_bond E_angle E_dihed Enthalpy Press
6000   300.003269     1518     1.044683 -6326.519824 -7235.974879   909.455055 11755.830042  1220.558713 -20212.411698     0.048057     0.000007     0.000000 -5148.703965  5329.408997
Loop time of 43.6445 on 27 procs for 10000 steps with 1518 atoms

unfix    eqmd
unfix    eqions

group   solvent type 1 2
1500 atoms in group solvent
group   water   type 1 2
1500 atoms in group water
group   ions    type 3 4
18 atoms in group ions
group   wall    type 5 6 7
0 atoms in group wall
group   flying  type 8 9 10 11
2 atoms in group flying
group   eq_run  union solvent ions flying
1518 atoms in group eq_run

######################################################################
pair_style   lj/cut/coul/long 9.000000 9.000000
kspace_style pppm 0.0001

# LJ JC_SPCE (neq? False)
# real particles
pair_coeff  1 1     0.155354    3.169   9.0   # O O
pair_coeff  3 3     0.352644    2.1595  9.0   # Na Na
pair_coeff  4 4     0.0127851   4.8305  9.0   # Cl Cl
# flying particles
pair_coeff  8 8     0.155354    3.169   9.0   # O O
pair_coeff  10 10   0.352644    2.1595  9.0   # Na Na
pair_coeff  11 11   0.0127851   4.8305  9.0   # Cl Cl
# wall particles: not exist now
pair_coeff  * 5 0 0 9.0
pair_coeff  * 6 0 0 9.0
pair_coeff  * 7 0 0 9.0
# hydrogens
pair_coeff  * 2 0 0 9.0 # hydrogen
pair_coeff  * 9 0 0 9.0 # flying hydrogen

# intramolecular force field
bond_coeff  1   100000   1.0
angle_coeff 1   100000   109.470000

pair_modify  tail no shift yes mix arithmetic # LB mixing rule
neigh_modify delay 4 every 1 check yes page 500000 one 50000
######################################################################
# dealing with ideal flying particles: force field=JC_SPCE

# Non-interacting flying molecule (trial deletion)
# real particles
pair_coeff  1 1     0.155354    3.169   9.0   # O O
pair_coeff  3 3     0.352644    2.1595   9.0   # Na Na
pair_coeff  4 4     0.0127851   4.8305   9.0   # Cl Cl
# flying particles
pair_coeff  * 8  0 0 9.0    # non-interacting
pair_coeff  * 10 0 0 9.0    # non-interacting
pair_coeff  * 11 0 0 9.0    # non-interacting
# wall particles: not exist now
pair_coeff  * 5 0 0 9.0
pair_coeff  * 6 0 0 9.0
pair_coeff  * 7 0 0 9.0
# hydrogens
pair_coeff  * 2 0 0 9.0     # hydrogen
pair_coeff  * 9 0 0 9.0     # flying hydrogen

# intramolecular force field
bond_coeff  1   100000   1.0
angle_coeff 1   100000   109.470000

# flying water or ions
set type 8  charge 0.           # non-interacting
Setting atom values ...
  0 settings made for charge
set type 9  charge 0.           # non-interacting
Setting atom values ...
  0 settings made for charge
set type 10 charge 0.           # non-interacting
Setting atom values ...
  1 settings made for charge
set type 11 charge 0.           # non-interacting
Setting atom values ...
  1 settings made for charge

run 0 post no # making flying moelcule non-interacting
PPPM initialization ...
  G vector (1/distance) = 0.29816095
  grid = 15 15 15
  stencil order = 5
  estimated absolute RMS force accuracy = 0.02701408
  estimated relative force accuracy = 8.1352099e-05
  3d grid and FFT values/proc = 1728 150
  update every 1 steps, delay 4 steps, check yes
Step Temp Atoms Density TotEng PotEng KinEng E_coul E_vdwl E_long E_bond E_angle E_dihed Enthalpy Press
16000   203.006513     1518     1.044683 -6092.413720 -7010.386606   917.972886 22743.216908  1197.863785 -30951.515363     0.048057     0.000007     0.000000 -1119.178464 22503.012272
Loop time of 3.22319e-06 on 27 procs for 0 steps with 1518 atoms

# done post_propagate after NEMD
# selected salt 1503/1518
#The center of bimodal dist. on a positive side=2.000000
set type 10 type 3
Setting atom values ...
  1 settings made for type
set type 11 type 4
Setting atom values ...
  1 settings made for type
run 0 post no # lj type change (reject_delete)
PPPM initialization ...
  G vector (1/distance) = 0.29816095
  grid = 15 15 15
  stencil order = 5
  estimated absolute RMS force accuracy = 0.02701408
  estimated relative force accuracy = 8.1352099e-05
  3d grid and FFT values/proc = 1728 150
Step Temp Atoms Density TotEng PotEng KinEng E_coul E_vdwl E_long E_bond E_angle E_dihed Enthalpy Press
16000   203.006513     1518     1.044683 -4056.208476 -4974.181362   917.972886 22743.216908  3234.069029 -30951.515363     0.048057     0.000007     0.000000  9162.910240 59814.180378
Loop time of 3.15659e-06 on 27 procs for 0 steps with 1518 atoms

set atom 1503 charge 1.000000
Setting atom values ...
  1 settings made for charge
set atom 1518 charge -1.000000
Setting atom values ...
  1 settings made for charge
run 0 post no # charge return (reject_delete)
PPPM initialization ...
  G vector (1/distance) = 0.29816095
  grid = 15 15 15
  stencil order = 5
  estimated absolute RMS force accuracy = 0.027111459
  estimated relative force accuracy = 8.1645354e-05
  3d grid and FFT values/proc = 1728 150
Step Temp Atoms Density TotEng PotEng KinEng E_coul E_vdwl E_long E_bond E_angle E_dihed Enthalpy Press
16000   203.006513     1518     1.044683 -4109.971823 -5027.944708   917.972886 22741.553823  3234.069029 -31003.615625     0.048057     0.000007     0.000000  9090.977222 59731.965819
Loop time of 2.69441e-06 on 27 procs for 0 steps with 1518 atoms

run 0 post no # return_position back to old
PPPM initialization ...
  G vector (1/distance) = 0.29816095
  grid = 15 15 15
  stencil order = 5
  estimated absolute RMS force accuracy = 0.027111459
  estimated relative force accuracy = 8.1645354e-05
  3d grid and FFT values/proc = 1728 150
Step Temp Atoms Density TotEng PotEng KinEng E_coul E_vdwl E_long E_bond E_angle E_dihed Enthalpy Press
16000   201.124588     1518     1.044683 -6280.404764 -7189.867797   909.463033 22613.076943  1266.714616 -31069.707420     0.048057     0.000007     0.000000 -1073.958623 23558.250386
Loop time of 7.58804e-06 on 27 procs for 0 steps with 1518 atoms

group widom_test         delete
group noneq_run          delete
group noneq_run_rigid    delete
reset_timestep 6000

group   solvent delete
group   water   delete
group   ions    delete
group   wall    delete
group   flying  delete
group   eq_run  delete

group   solvent type 1 2
1500 atoms in group solvent
group   water   type 1 2
1500 atoms in group water
group   ions    type 3 4
18 atoms in group ions
group   wall    type 5 6 7
0 atoms in group wall
group   flying  type 8 9 10 11
0 atoms in group flying
group   eq_run  union solvent ions flying
1518 atoms in group eq_run

######################################################################
pair_style   lj/cut/coul/long 9.000000 9.000000
kspace_style pppm 0.0001

# LJ JC_SPCE (neq? False)
# real particles
pair_coeff  1 1     0.155354    3.169   9.0   # O O
pair_coeff  3 3     0.352644    2.1595  9.0   # Na Na
pair_coeff  4 4     0.0127851   4.8305  9.0   # Cl Cl
# flying particles
pair_coeff  8 8     0.155354    3.169   9.0   # O O
pair_coeff  10 10   0.352644    2.1595  9.0   # Na Na
pair_coeff  11 11   0.0127851   4.8305  9.0   # Cl Cl
# wall particles: not exist now
pair_coeff  * 5 0 0 9.0
pair_coeff  * 6 0 0 9.0
pair_coeff  * 7 0 0 9.0
# hydrogens
pair_coeff  * 2 0 0 9.0 # hydrogen
pair_coeff  * 9 0 0 9.0 # flying hydrogen

# intramolecular force field
bond_coeff  1   100000   1.0
angle_coeff 1   100000   109.470000

pair_modify  tail no shift yes mix arithmetic # LB mixing rule
neigh_modify delay 4 every 1 check yes page 500000 one 50000
######################################################################
# shake is off; should be a dummy run
timestep 2.000000
thermo 2000
fix  eqmd   eq_run npt temp 298.150000 298.150000 200.000000 iso 1.000000 1.000000 2000.000000
run 0 # (neq? False) MD run
PPPM initialization ...
  G vector (1/distance) = 0.29816095
  grid = 15 15 15
  stencil order = 5
  estimated absolute RMS force accuracy = 0.027111459
  estimated relative force accuracy = 8.1645354e-05
  3d grid and FFT values/proc = 1728 150
Step Temp Atoms Density TotEng PotEng KinEng E_coul E_vdwl E_long E_bond E_angle E_dihed Enthalpy Press
6000   201.124588     1518     1.044683 -6280.404764 -7189.867797   909.463033 22613.076943  1266.714616 -31069.707420     0.048057     0.000007     0.000000 -1073.958623 23558.250386
Loop time of 3.46719e-06 on 27 procs for 0 steps with 1518 atoms

unfix    eqmd
#chosen_cation deletion_move 0.818808 -8.205144 -9.395517 # select_molecule
#chosen_anion deletion_move 3.152299 -7.240935 -8.457693 # select_molecule
# selected_velocity_salt 1507 cation vel -0.002822 0.001901 -0.001699
# selected_velocity_salt 1513 anion vel -0.000081 -0.000919 -0.000778
group widom_test id  1507 1513 # select_molecule
2 atoms in group widom_test
set atom 1507 type 10
Setting atom values ...
  1 settings made for type
set atom 1513 type 11
Setting atom values ...
  1 settings made for type
run 0 post no # done selecting a flying molecule
PPPM initialization ...
  G vector (1/distance) = 0.29816095
  grid = 15 15 15
  stencil order = 5
  estimated absolute RMS force accuracy = 0.027111459
  estimated relative force accuracy = 8.1645354e-05
  3d grid and FFT values/proc = 1728 150
Step Temp Atoms Density TotEng PotEng KinEng E_coul E_vdwl E_long E_bond E_angle E_dihed Enthalpy Press
6000   201.124588     1518     1.044683 -6301.317037 -7210.780070   909.463033 22613.076943  1245.802344 -31069.707420     0.048057     0.000007     0.000000 -1208.035107 23046.202295
Loop time of 3.82089e-06 on 27 procs for 0 steps with 1518 atoms

group noneq_run_rigid    intersect   all         water               # select_salt no selection
1500 atoms in group noneq_run_rigid
group noneq_run_pre      subtract    all         noneq_run_rigid     # select_salt no selection
18 atoms in group noneq_run_pre
group noneq_run          subtract    noneq_run_pre   widom_test      # select_salt no selection
16 atoms in group noneq_run
group noneq_run_pre      delete
run 0 post no # mom rev random number
PPPM initialization ...
  G vector (1/distance) = 0.29816095
  grid = 15 15 15
  stencil order = 5
  estimated absolute RMS force accuracy = 0.027111459
  estimated relative force accuracy = 8.1645354e-05
  3d grid and FFT values/proc = 1728 150
Step Temp Atoms Density TotEng PotEng KinEng E_coul E_vdwl E_long E_bond E_angle E_dihed Enthalpy Press
6000   201.124588     1518     1.044683 -6301.317037 -7210.780070   909.463033 22613.076943  1245.802344 -31069.707420     0.048057     0.000007     0.000000 -1208.035107 23046.202295
Loop time of 3.32048e-06 on 27 procs for 0 steps with 1518 atoms

######################################################################
pair_style   lj/cut/coul/long/neq 14.000000 14.000000 6000 10000 3.000000 7 0 0 1.000000 3.000000 11 1.000000
kspace_style pppm/neq 0.0001 6000 10000 3.000000 7 0 0 1.000000 3.000000 11 1.000000

# LJ JC_SPCE (neq? True)
# real particles
pair_coeff  1 1     0.155354    3.169   14.0   # O O
pair_coeff  3 3     0.352644    2.1595  14.0   # Na Na
pair_coeff  4 4     0.0127851   4.8305  14.0   # Cl Cl
# flying particles
pair_coeff  8 8     0.155354    3.169   14.0   # O O
pair_coeff  10 10   0.352644    2.1595  14.0   # Na Na
pair_coeff  11 11   0.0127851   4.8305  14.0   # Cl Cl
# wall particles: not exist now
pair_coeff  * 5 0 0 14.0
pair_coeff  * 6 0 0 14.0
pair_coeff  * 7 0 0 14.0
# hydrogens
pair_coeff  * 2 0 0 14.0 # hydrogen
pair_coeff  * 9 0 0 14.0 # flying hydrogen

# intramolecular force field
bond_coeff  1   100000   1.0
angle_coeff 1   100000   109.470000

pair_modify  tail no shift yes mix arithmetic # LB mixing rule
neigh_modify delay 2 every 1 check yes page 500000 one 50000
######################################################################
timestep 4.000000
fix  eqmd  noneq_run_rigid     rigid/nve molecule  # rigid water
  500 rigid bodies with 1500 atoms
fix  eqions  noneq_run           nve                 # nve for non-rigid
run 10000 # (neq? True) MD run
4D PPPM initialization ...
  G vector (1/distance) = 0.19384192
  grid = 10 10 10
  stencil order = 5
  estimated absolute RMS force accuracy = 0.018453451
  estimated relative force accuracy = 5.557202e-05
  3d grid and FFT values/proc = 729 80
  update every 1 steps, delay 2 steps, check yes
Step Temp Atoms Density TotEng PotEng KinEng E_coul E_vdwl E_long E_bond E_angle E_dihed Enthalpy Press
6000   300.003269     1518     1.044683 -6326.519823 -7235.974878   909.455055 11755.830042  1220.558713 -20212.411697     0.048057     0.000007     0.000000 -5148.703955  5329.409038
Loop time of 43.8121 on 27 procs for 10000 steps with 1518 atoms

unfix    eqmd
unfix    eqions

group   solvent type 1 2
1500 atoms in group solvent
group   water   type 1 2
1500 atoms in group water
group   ions    type 3 4
18 atoms in group ions
group   wall    type 5 6 7
0 atoms in group wall
group   flying  type 8 9 10 11
2 atoms in group flying
group   eq_run  union solvent ions flying
1518 atoms in group eq_run

######################################################################
pair_style   lj/cut/coul/long 9.000000 9.000000
kspace_style pppm 0.0001

# LJ JC_SPCE (neq? False)
# real particles
pair_coeff  1 1     0.155354    3.169   9.0   # O O
pair_coeff  3 3     0.352644    2.1595  9.0   # Na Na
pair_coeff  4 4     0.0127851   4.8305  9.0   # Cl Cl
# flying particles
pair_coeff  8 8     0.155354    3.169   9.0   # O O
pair_coeff  10 10   0.352644    2.1595  9.0   # Na Na
pair_coeff  11 11   0.0127851   4.8305  9.0   # Cl Cl
# wall particles: not exist now
pair_coeff  * 5 0 0 9.0
pair_coeff  * 6 0 0 9.0
pair_coeff  * 7 0 0 9.0
# hydrogens
pair_coeff  * 2 0 0 9.0 # hydrogen
pair_coeff  * 9 0 0 9.0 # flying hydrogen

# intramolecular force field
bond_coeff  1   100000   1.0
angle_coeff 1   100000   109.470000

pair_modify  tail no shift yes mix arithmetic # LB mixing rule
neigh_modify delay 4 every 1 check yes page 500000 one 50000
######################################################################
# dealing with ideal flying particles: force field=JC_SPCE

# Non-interacting flying molecule (trial deletion)
# real particles
pair_coeff  1 1     0.155354    3.169   9.0   # O O
pair_coeff  3 3     0.352644    2.1595   9.0   # Na Na
pair_coeff  4 4     0.0127851   4.8305   9.0   # Cl Cl
# flying particles
pair_coeff  * 8  0 0 9.0    # non-interacting
pair_coeff  * 10 0 0 9.0    # non-interacting
pair_coeff  * 11 0 0 9.0    # non-interacting
# wall particles: not exist now
pair_coeff  * 5 0 0 9.0
pair_coeff  * 6 0 0 9.0
pair_coeff  * 7 0 0 9.0
# hydrogens
pair_coeff  * 2 0 0 9.0     # hydrogen
pair_coeff  * 9 0 0 9.0     # flying hydrogen

# intramolecular force field
bond_coeff  1   100000   1.0
angle_coeff 1   100000   109.470000

# flying water or ions
set type 8  charge 0.           # non-interacting
Setting atom values ...
  0 settings made for charge
set type 9  charge 0.           # non-interacting
Setting atom values ...
  0 settings made for charge
set type 10 charge 0.           # non-interacting
Setting atom values ...
  1 settings made for charge
set type 11 charge 0.           # non-interacting
Setting atom values ...
  1 settings made for charge

run 0 post no # making flying moelcule non-interacting
PPPM initialization ...
  G vector (1/distance) = 0.29816095
  grid = 15 15 15
  stencil order = 5
  estimated absolute RMS force accuracy = 0.02701408
  estimated relative force accuracy = 8.1352099e-05
  3d grid and FFT values/proc = 1728 150
  update every 1 steps, delay 4 steps, check yes
Step Temp Atoms Density TotEng PotEng KinEng E_coul E_vdwl E_long E_bond E_angle E_dihed Enthalpy Press
16000   203.036955     1518     1.044683 -6099.870449 -7017.980991   918.110542 22753.911330  1177.935770 -30949.876155     0.048057     0.000007     0.000000 -1238.987213 21994.639193
Loop time of 2.94444e-06 on 27 procs for 0 steps with 1518 atoms

# done post_propagate after NEMD
# selected salt 1507/1513
#The center of bimodal dist. on a positive side=2.000000
set type 10 type 3
Setting atom values ...
  1 settings made for type
set type 11 type 4
Setting atom values ...
  1 settings made for type
run 0 post no # lj type change (reject_delete)
PPPM initialization ...
  G vector (1/distance) = 0.29816095
  grid = 15 15 15
  stencil order = 5
  estimated absolute RMS force accuracy = 0.02701408
  estimated relative force accuracy = 8.1352099e-05
  3d grid and FFT values/proc = 1728 150
Step Temp Atoms Density TotEng PotEng KinEng E_coul E_vdwl E_long E_bond E_angle E_dihed Enthalpy Press
16000   203.036955     1518     1.044683 -1419.923603 -2338.034145   918.110542 22753.911330  5857.882616 -30949.876155     0.048057     0.000007     0.000000 22299.747449 107327.327429
Loop time of 2.74411e-06 on 27 procs for 0 steps with 1518 atoms

set atom 1507 charge 1.000000
Setting atom values ...
  1 settings made for charge
set atom 1513 charge -1.000000
Setting atom values ...
  1 settings made for charge
run 0 post no # charge return (reject_delete)
PPPM initialization ...
  G vector (1/distance) = 0.29816095
  grid = 15 15 15
  stencil order = 5
  estimated absolute RMS force accuracy = 0.027111459
  estimated relative force accuracy = 8.1645354e-05
  3d grid and FFT values/proc = 1728 150
Step Temp Atoms Density TotEng PotEng KinEng E_coul E_vdwl E_long E_bond E_angle E_dihed Enthalpy Press
16000   203.036955     1518     1.044683 -1555.019643 -2473.130186   918.110542 22710.351566  5857.882616 -31041.412432     0.048057     0.000007     0.000000 22119.658370 107123.741865
Loop time of 2.63341e-06 on 27 procs for 0 steps with 1518 atoms

run 0 post no # return_position back to old
PPPM initialization ...
  G vector (1/distance) = 0.29816095
  grid = 15 15 15
  stencil order = 5
  estimated absolute RMS force accuracy = 0.027111459
  estimated relative force accuracy = 8.1645354e-05
  3d grid and FFT values/proc = 1728 150
Step Temp Atoms Density TotEng PotEng KinEng E_coul E_vdwl E_long E_bond E_angle E_dihed Enthalpy Press
16000   201.124588     1518     1.044683 -6280.404770 -7189.867803   909.463033 22613.076943  1266.714616 -31069.707426     0.048057     0.000007     0.000000 -1073.958629 23558.250385
Loop time of 2.92193e-06 on 27 procs for 0 steps with 1518 atoms

group widom_test         delete
group noneq_run          delete
group noneq_run_rigid    delete
reset_timestep 6000

group   solvent delete
group   water   delete
group   ions    delete
group   wall    delete
group   flying  delete
group   eq_run  delete

group   solvent type 1 2
1500 atoms in group solvent
group   water   type 1 2
1500 atoms in group water
group   ions    type 3 4
18 atoms in group ions
group   wall    type 5 6 7
0 atoms in group wall
group   flying  type 8 9 10 11
0 atoms in group flying
group   eq_run  union solvent ions flying
1518 atoms in group eq_run

######################################################################
pair_style   lj/cut/coul/long 9.000000 9.000000
kspace_style pppm 0.0001

# LJ JC_SPCE (neq? False)
# real particles
pair_coeff  1 1     0.155354    3.169   9.0   # O O
pair_coeff  3 3     0.352644    2.1595  9.0   # Na Na
pair_coeff  4 4     0.0127851   4.8305  9.0   # Cl Cl
# flying particles
pair_coeff  8 8     0.155354    3.169   9.0   # O O
pair_coeff  10 10   0.352644    2.1595  9.0   # Na Na
pair_coeff  11 11   0.0127851   4.8305  9.0   # Cl Cl
# wall particles: not exist now
pair_coeff  * 5 0 0 9.0
pair_coeff  * 6 0 0 9.0
pair_coeff  * 7 0 0 9.0
# hydrogens
pair_coeff  * 2 0 0 9.0 # hydrogen
pair_coeff  * 9 0 0 9.0 # flying hydrogen

# intramolecular force field
bond_coeff  1   100000   1.0
angle_coeff 1   100000   109.470000

pair_modify  tail no shift yes mix arithmetic # LB mixing rule
neigh_modify delay 4 every 1 check yes page 500000 one 50000
######################################################################
# shake is off; should be a dummy run
timestep 2.000000
thermo 2000
fix  eqmd   eq_run npt temp 298.150000 298.150000 200.000000 iso 1.000000 1.000000 2000.000000
run 0 # (neq? False) MD run
PPPM initialization ...
  G vector (1/distance) = 0.29816095
  grid = 15 15 15
  stencil order = 5
  estimated absolute RMS force accuracy = 0.027111459
  estimated relative force accuracy = 8.1645354e-05
  3d grid and FFT values/proc = 1728 150
Step Temp Atoms Density TotEng PotEng KinEng E_coul E_vdwl E_long E_bond E_angle E_dihed Enthalpy Press
6000   201.124588     1518     1.044683 -6280.404770 -7189.867803   909.463033 22613.076943  1266.714616 -31069.707426     0.048057     0.000007     0.000000 -1073.958629 23558.250385
Loop time of 3.08719e-06 on 27 procs for 0 steps with 1518 atoms

unfix    eqmd
#chosen_cation deletion_move 4.544383 4.162048 -0.265530 # select_molecule
#chosen_anion deletion_move -0.015048 -3.193786 -1.579658 # select_molecule
# selected_velocity_salt 1505 cation vel -0.010769 0.000162 0.002630
# selected_velocity_salt 1511 anion vel -0.002789 -0.000300 0.001361
group widom_test id  1505 1511 # select_molecule
2 atoms in group widom_test
set atom 1505 type 10
Setting atom values ...
  1 settings made for type
set atom 1511 type 11
Setting atom values ...
  1 settings made for type
run 0 post no # done selecting a flying molecule
PPPM initialization ...
  G vector (1/distance) = 0.29816095
  grid = 15 15 15
  stencil order = 5
  estimated absolute RMS force accuracy = 0.027111459
  estimated relative force accuracy = 8.1645354e-05
  3d grid and FFT values/proc = 1728 150
Step Temp Atoms Density TotEng PotEng KinEng E_coul E_vdwl E_long E_bond E_angle E_dihed Enthalpy Press
6000   201.124588     1518     1.044683 -6304.813214 -7214.276248   909.463033 22613.076943  1242.306172 -31069.707426     0.048057     0.000007     0.000000 -1226.839826 22976.933841
Loop time of 3.25e-06 on 27 procs for 0 steps with 1518 atoms

group noneq_run_rigid    intersect   all         water               # select_salt no selection
1500 atoms in group noneq_run_rigid
group noneq_run_pre      subtract    all         noneq_run_rigid     # select_salt no selection
18 atoms in group noneq_run_pre
group noneq_run          subtract    noneq_run_pre   widom_test      # select_salt no selection
16 atoms in group noneq_run
group noneq_run_pre      delete
run 0 post no # mom rev random number
PPPM initialization ...
  G vector (1/distance) = 0.29816095
  grid = 15 15 15
  stencil order = 5
  estimated absolute RMS force accuracy = 0.027111459
  estimated relative force accuracy = 8.1645354e-05
  3d grid and FFT values/proc = 1728 150
Step Temp Atoms Density TotEng PotEng KinEng E_coul E_vdwl E_long E_bond E_angle E_dihed Enthalpy Press
6000   201.124588     1518     1.044683 -6304.813214 -7214.276248   909.463033 22613.076943  1242.306172 -31069.707426     0.048057     0.000007     0.000000 -1226.839826 22976.933841
Loop time of 2.87307e-06 on 27 procs for 0 steps with 1518 atoms

######################################################################
pair_style   lj/cut/coul/long/neq 14.000000 14.000000 6000 10000 3.000000 7 0 0 1.000000 3.000000 11 1.000000
kspace_style pppm/neq 0.0001 6000 10000 3.000000 7 0 0 1.000000 3.000000 11 1.000000

# LJ JC_SPCE (neq? True)
# real particles
pair_coeff  1 1     0.155354    3.169   14.0   # O O
pair_coeff  3 3     0.352644    2.1595  14.0   # Na Na
pair_coeff  4 4     0.0127851   4.8305  14.0   # Cl Cl
# flying particles
pair_coeff  8 8     0.155354    3.169   14.0   # O O
pair_coeff  10 10   0.352644    2.1595  14.0   # Na Na
pair_coeff  11 11   0.0127851   4.8305  14.0   # Cl Cl
# wall particles: not exist now
pair_coeff  * 5 0 0 14.0
pair_coeff  * 6 0 0 14.0
pair_coeff  * 7 0 0 14.0
# hydrogens
pair_coeff  * 2 0 0 14.0 # hydrogen
pair_coeff  * 9 0 0 14.0 # flying hydrogen

# intramolecular force field
bond_coeff  1   100000   1.0
angle_coeff 1   100000   109.470000

pair_modify  tail no shift yes mix arithmetic # LB mixing rule
neigh_modify delay 2 every 1 check yes page 500000 one 50000
######################################################################
timestep 4.000000
fix  eqmd  noneq_run_rigid     rigid/nve molecule  # rigid water
  500 rigid bodies with 1500 atoms
fix  eqions  noneq_run           nve                 # nve for non-rigid
run 10000 # (neq? True) MD run
4D PPPM initialization ...
  G vector (1/distance) = 0.19384192
  grid = 10 10 10
  stencil order = 5
  estimated absolute RMS force accuracy = 0.018453451
  estimated relative force accuracy = 5.557202e-05
  3d grid and FFT values/proc = 729 80
  update every 1 steps, delay 2 steps, check yes
Step Temp Atoms Density TotEng PotEng KinEng E_coul E_vdwl E_long E_bond E_angle E_dihed Enthalpy Press
6000   300.003269     1518     1.044683 -6326.519823 -7235.974879   909.455055 11755.830042  1220.558713 -20212.411698     0.048057     0.000007     0.000000 -5148.703963  5329.409005
Loop time of 43.5947 on 27 procs for 10000 steps with 1518 atoms

unfix    eqmd
unfix    eqions

group   solvent type 1 2
1500 atoms in group solvent
group   water   type 1 2
1500 atoms in group water
group   ions    type 3 4
18 atoms in group ions
group   wall    type 5 6 7
0 atoms in group wall
group   flying  type 8 9 10 11
2 atoms in group flying
group   eq_run  union solvent ions flying
1518 atoms in group eq_run

######################################################################
pair_style   lj/cut/coul/long 9.000000 9.000000
kspace_style pppm 0.0001

# LJ JC_SPCE (neq? False)
# real particles
pair_coeff  1 1     0.155354    3.169   9.0   # O O
pair_coeff  3 3     0.352644    2.1595  9.0   # Na Na
pair_coeff  4 4     0.0127851   4.8305  9.0   # Cl Cl
# flying particles
pair_coeff  8 8     0.155354    3.169   9.0   # O O
pair_coeff  10 10   0.352644    2.1595  9.0   # Na Na
pair_coeff  11 11   0.0127851   4.8305  9.0   # Cl Cl
# wall particles: not exist now
pair_coeff  * 5 0 0 9.0
pair_coeff  * 6 0 0 9.0
pair_coeff  * 7 0 0 9.0
# hydrogens
pair_coeff  * 2 0 0 9.0 # hydrogen
pair_coeff  * 9 0 0 9.0 # flying hydrogen

# intramolecular force field
bond_coeff  1   100000   1.0
angle_coeff 1   100000   109.470000

pair_modify  tail no shift yes mix arithmetic # LB mixing rule
neigh_modify delay 4 every 1 check yes page 500000 one 50000
######################################################################
# dealing with ideal flying particles: force field=JC_SPCE

# Non-interacting flying molecule (trial deletion)
# real particles
pair_coeff  1 1     0.155354    3.169   9.0   # O O
pair_coeff  3 3     0.352644    2.1595   9.0   # Na Na
pair_coeff  4 4     0.0127851   4.8305   9.0   # Cl Cl
# flying particles
pair_coeff  * 8  0 0 9.0    # non-interacting
pair_coeff  * 10 0 0 9.0    # non-interacting
pair_coeff  * 11 0 0 9.0    # non-interacting
# wall particles: not exist now
pair_coeff  * 5 0 0 9.0
pair_coeff  * 6 0 0 9.0
pair_coeff  * 7 0 0 9.0
# hydrogens
pair_coeff  * 2 0 0 9.0     # hydrogen
pair_coeff  * 9 0 0 9.0     # flying hydrogen

# intramolecular force field
bond_coeff  1   100000   1.0
angle_coeff 1   100000   109.470000

# flying water or ions
set type 8  charge 0.           # non-interacting
Setting atom values ...
  0 settings made for charge
set type 9  charge 0.           # non-interacting
Setting atom values ...
  0 settings made for charge
set type 10 charge 0.           # non-interacting
Setting atom values ...
  1 settings made for charge
set type 11 charge 0.           # non-interacting
Setting atom values ...
  1 settings made for charge

run 0 post no # making flying moelcule non-interacting
PPPM initialization ...
  G vector (1/distance) = 0.29816095
  grid = 15 15 15
  stencil order = 5
  estimated absolute RMS force accuracy = 0.02701408
  estimated relative force accuracy = 8.1352099e-05
  3d grid and FFT values/proc = 1728 150
  update every 1 steps, delay 4 steps, check yes
Step Temp Atoms Density TotEng PotEng KinEng E_coul E_vdwl E_long E_bond E_angle E_dihed Enthalpy Press
16000   193.712554     1518     1.044683 -6096.522409 -6972.469048   875.946638 22830.249582  1152.245765 -30955.012458     0.048057     0.000007     0.000000 -1356.828502 21446.278861
Loop time of 3.13926e-06 on 27 procs for 0 steps with 1518 atoms

# done post_propagate after NEMD
# selected salt 1505/1511
#The center of bimodal dist. on a positive side=2.000000
set type 10 type 3
Setting atom values ...
  1 settings made for type
set type 11 type 4
Setting atom values ...
  1 settings made for type
run 0 post no # lj type change (reject_delete)
PPPM initialization ...
  G vector (1/distance) = 0.29816095
  grid = 15 15 15
  stencil order = 5
  estimated absolute RMS force accuracy = 0.02701408
  estimated relative force accuracy = 8.1352099e-05
  3d grid and FFT values/proc = 1728 150
Step Temp Atoms Density TotEng PotEng KinEng E_coul E_vdwl E_long E_bond E_angle E_dihed Enthalpy Press
16000   193.712554     1518     1.044683 -2622.527225 -3498.473863   875.946638 22830.249582  4626.240949 -30955.012458     0.048057     0.000007     0.000000 16163.652321 85004.148618
Loop time of 3.1087e-06 on 27 procs for 0 steps with 1518 atoms

set atom 1505 charge 1.000000
Setting atom values ...
  1 settings made for charge
set atom 1511 charge -1.000000
Setting atom values ...
  1 settings made for charge
run 0 post no # charge return (reject_delete)
PPPM initialization ...
  G vector (1/distance) = 0.29816095
  grid = 15 15 15
  stencil order = 5
  estimated absolute RMS force accuracy = 0.027111459
  estimated relative force accuracy = 8.1645354e-05
  3d grid and FFT values/proc = 1728 150
Step Temp Atoms Density TotEng PotEng KinEng E_coul E_vdwl E_long E_bond E_angle E_dihed Enthalpy Press
16000   193.712554     1518     1.044683 -2601.662251 -3477.608889   875.946638 22896.045341  4626.240949 -30999.943243     0.048057     0.000007     0.000000 16191.448830 85035.512590
Loop time of 2.48604e-06 on 27 procs for 0 steps with 1518 atoms

run 0 post no # return_position back to old
PPPM initialization ...
  G vector (1/distance) = 0.29816095
  grid = 15 15 15
  stencil order = 5
  estimated absolute RMS force accuracy = 0.027111459
  estimated relative force accuracy = 8.1645354e-05
  3d grid and FFT values/proc = 1728 150
Step Temp Atoms Density TotEng PotEng KinEng E_coul E_vdwl E_long E_bond E_angle E_dihed Enthalpy Press
16000   201.124588     1518     1.044683 -6280.404763 -7189.867796   909.463033 22613.076943  1266.714616 -31069.707419     0.048057     0.000007     0.000000 -1073.958622 23558.250388
Loop time of 2.70744e-06 on 27 procs for 0 steps with 1518 atoms

group widom_test         delete
group noneq_run          delete
group noneq_run_rigid    delete
reset_timestep 6000

group   solvent delete
group   water   delete
group   ions    delete
group   wall    delete
group   flying  delete
group   eq_run  delete

group   solvent type 1 2
1500 atoms in group solvent
group   water   type 1 2
1500 atoms in group water
group   ions    type 3 4
18 atoms in group ions
group   wall    type 5 6 7
0 atoms in group wall
group   flying  type 8 9 10 11
0 atoms in group flying
group   eq_run  union solvent ions flying
1518 atoms in group eq_run

######################################################################
pair_style   lj/cut/coul/long 9.000000 9.000000
kspace_style pppm 0.0001

# LJ JC_SPCE (neq? False)
# real particles
pair_coeff  1 1     0.155354    3.169   9.0   # O O
pair_coeff  3 3     0.352644    2.1595  9.0   # Na Na
pair_coeff  4 4     0.0127851   4.8305  9.0   # Cl Cl
# flying particles
pair_coeff  8 8     0.155354    3.169   9.0   # O O
pair_coeff  10 10   0.352644    2.1595  9.0   # Na Na
pair_coeff  11 11   0.0127851   4.8305  9.0   # Cl Cl
# wall particles: not exist now
pair_coeff  * 5 0 0 9.0
pair_coeff  * 6 0 0 9.0
pair_coeff  * 7 0 0 9.0
# hydrogens
pair_coeff  * 2 0 0 9.0 # hydrogen
pair_coeff  * 9 0 0 9.0 # flying hydrogen

# intramolecular force field
bond_coeff  1   100000   1.0
angle_coeff 1   100000   109.470000

pair_modify  tail no shift yes mix arithmetic # LB mixing rule
neigh_modify delay 4 every 1 check yes page 500000 one 50000
######################################################################
# shake is off; should be a dummy run
timestep 2.000000
thermo 2000
fix  eqmd   eq_run npt temp 298.150000 298.150000 200.000000 iso 1.000000 1.000000 2000.000000
run 0 # (neq? False) MD run
PPPM initialization ...
  G vector (1/distance) = 0.29816095
  grid = 15 15 15
  stencil order = 5
  estimated absolute RMS force accuracy = 0.027111459
  estimated relative force accuracy = 8.1645354e-05
  3d grid and FFT values/proc = 1728 150
Step Temp Atoms Density TotEng PotEng KinEng E_coul E_vdwl E_long E_bond E_angle E_dihed Enthalpy Press
6000   201.124588     1518     1.044683 -6280.404763 -7189.867796   909.463033 22613.076943  1266.714616 -31069.707419     0.048057     0.000007     0.000000 -1073.958622 23558.250388
Loop time of 3.52959e-06 on 27 procs for 0 steps with 1518 atoms

unfix    eqmd
#chosen_cation deletion_move 0.271920 5.639140 -11.883629 # select_molecule
#chosen_anion deletion_move -5.729022 1.952115 10.754113 # select_molecule
# selected_velocity_salt 1503 cation vel 0.003229 -0.000118 -0.000459
# selected_velocity_salt 1518 anion vel -0.001664 -0.003359 0.001175
group widom_test id  1503 1518 # select_molecule
2 atoms in group widom_test
set atom 1503 type 10
Setting atom values ...
  1 settings made for type
set atom 1518 type 11
Setting atom values ...
  1 settings made for type
run 0 post no # done selecting a flying molecule
PPPM initialization ...
  G vector (1/distance) = 0.29816095
  grid = 15 15 15
  stencil order = 5
  estimated absolute RMS force accuracy = 0.027111459
  estimated relative force accuracy = 8.1645354e-05
  3d grid and FFT values/proc = 1728 150
Step Temp Atoms Density TotEng PotEng KinEng E_coul E_vdwl E_long E_bond E_angle E_dihed Enthalpy Press
6000   201.124588     1518     1.044683 -6308.437249 -7217.900282   909.463033 22613.076943  1238.682131 -31069.707419     0.048057     0.000007     0.000000 -1251.163753 22883.270479
Loop time of 3.15348e-06 on 27 procs for 0 steps with 1518 atoms

group noneq_run_rigid    intersect   all         water               # select_salt no selection
1500 atoms in group noneq_run_rigid
group noneq_run_pre      subtract    all         noneq_run_rigid     # select_salt no selection
18 atoms in group noneq_run_pre
group noneq_run          subtract    noneq_run_pre   widom_test      # select_salt no selection
16 atoms in group noneq_run
group noneq_run_pre      delete
run 0 post no # mom rev random number
PPPM initialization ...
  G vector (1/distance) = 0.29816095
  grid = 15 15 15
  stencil order = 5
  estimated absolute RMS force accuracy = 0.027111459
  estimated relative force accuracy = 8.1645354e-05
  3d grid and FFT values/proc = 1728 150
Step Temp Atoms Density TotEng PotEng KinEng E_coul E_vdwl E_long E_bond E_angle E_dihed Enthalpy Press
6000   201.124588     1518     1.044683 -6308.437249 -7217.900282   909.463033 22613.076943  1238.682131 -31069.707419     0.048057     0.000007     0.000000 -1251.163753 22883.270479
Loop time of 2.84041e-06 on 27 procs for 0 steps with 1518 atoms

######################################################################
pair_style   lj/cut/coul/long/neq 14.000000 14.000000 6000 10000 3.000000 7 0 0 1.000000 3.000000 11 1.000000
kspace_style pppm/neq 0.0001 6000 10000 3.000000 7 0 0 1.000000 3.000000 11 1.000000

# LJ JC_SPCE (neq? True)
# real particles
pair_coeff  1 1     0.155354    3.169   14.0   # O O
pair_coeff  3 3     0.352644    2.1595  14.0   # Na Na
pair_coeff  4 4     0.0127851   4.8305  14.0   # Cl Cl
# flying particles
pair_coeff  8 8     0.155354    3.169   14.0   # O O
pair_coeff  10 10   0.352644    2.1595  14.0   # Na Na
pair_coeff  11 11   0.0127851   4.8305  14.0   # Cl Cl
# wall particles: not exist now
pair_coeff  * 5 0 0 14.0
pair_coeff  * 6 0 0 14.0
pair_coeff  * 7 0 0 14.0
# hydrogens
pair_coeff  * 2 0 0 14.0 # hydrogen
pair_coeff  * 9 0 0 14.0 # flying hydrogen

# intramolecular force field
bond_coeff  1   100000   1.0
angle_coeff 1   100000   109.470000

pair_modify  tail no shift yes mix arithmetic # LB mixing rule
neigh_modify delay 2 every 1 check yes page 500000 one 50000
######################################################################
timestep 4.000000
fix  eqmd  noneq_run_rigid     rigid/nve molecule  # rigid water
  500 rigid bodies with 1500 atoms
fix  eqions  noneq_run           nve                 # nve for non-rigid
run 10000 # (neq? True) MD run
4D PPPM initialization ...
  G vector (1/distance) = 0.19384192
  grid = 10 10 10
  stencil order = 5
  estimated absolute RMS force accuracy = 0.018453451
  estimated relative force accuracy = 5.557202e-05
  3d grid and FFT values/proc = 729 80
  update every 1 steps, delay 2 steps, check yes
Step Temp Atoms Density TotEng PotEng KinEng E_coul E_vdwl E_long E_bond E_angle E_dihed Enthalpy Press
6000   300.003269     1518     1.044683 -6326.519824 -7235.974880   909.455055 11755.830042  1220.558713 -20212.411699     0.048057     0.000007     0.000000 -5148.703979  5329.408938
Loop time of 43.7877 on 27 procs for 10000 steps with 1518 atoms

unfix    eqmd
unfix    eqions

group   solvent type 1 2
1500 atoms in group solvent
group   water   type 1 2
1500 atoms in group water
group   ions    type 3 4
18 atoms in group ions
group   wall    type 5 6 7
0 atoms in group wall
group   flying  type 8 9 10 11
2 atoms in group flying
group   eq_run  union solvent ions flying
1518 atoms in group eq_run

######################################################################
pair_style   lj/cut/coul/long 9.000000 9.000000
kspace_style pppm 0.0001

# LJ JC_SPCE (neq? False)
# real particles
pair_coeff  1 1     0.155354    3.169   9.0   # O O
pair_coeff  3 3     0.352644    2.1595  9.0   # Na Na
pair_coeff  4 4     0.0127851   4.8305  9.0   # Cl Cl
# flying particles
pair_coeff  8 8     0.155354    3.169   9.0   # O O
pair_coeff  10 10   0.352644    2.1595  9.0   # Na Na
pair_coeff  11 11   0.0127851   4.8305  9.0   # Cl Cl
# wall particles: not exist now
pair_coeff  * 5 0 0 9.0
pair_coeff  * 6 0 0 9.0
pair_coeff  * 7 0 0 9.0
# hydrogens
pair_coeff  * 2 0 0 9.0 # hydrogen
pair_coeff  * 9 0 0 9.0 # flying hydrogen

# intramolecular force field
bond_coeff  1   100000   1.0
angle_coeff 1   100000   109.470000

pair_modify  tail no shift yes mix arithmetic # LB mixing rule
neigh_modify delay 4 every 1 check yes page 500000 one 50000
######################################################################
# dealing with ideal flying particles: force field=JC_SPCE

# Non-interacting flying molecule (trial deletion)
# real particles
pair_coeff  1 1     0.155354    3.169   9.0   # O O
pair_coeff  3 3     0.352644    2.1595   9.0   # Na Na
pair_coeff  4 4     0.0127851   4.8305   9.0   # Cl Cl
# flying particles
pair_coeff  * 8  0 0 9.0    # non-interacting
pair_coeff  * 10 0 0 9.0    # non-interacting
pair_coeff  * 11 0 0 9.0    # non-interacting
# wall particles: not exist now
pair_coeff  * 5 0 0 9.0
pair_coeff  * 6 0 0 9.0
pair_coeff  * 7 0 0 9.0
# hydrogens
pair_coeff  * 2 0 0 9.0     # hydrogen
pair_coeff  * 9 0 0 9.0     # flying hydrogen

# intramolecular force field
bond_coeff  1   100000   1.0
angle_coeff 1   100000   109.470000

# flying water or ions
set type 8  charge 0.           # non-interacting
Setting atom values ...
  0 settings made for charge
set type 9  charge 0.           # non-interacting
Setting atom values ...
  0 settings made for charge
set type 10 charge 0.           # non-interacting
Setting atom values ...
  1 settings made for charge
set type 11 charge 0.           # non-interacting
Setting atom values ...
  1 settings made for charge

run 0 post no # making flying moelcule non-interacting
PPPM initialization ...
  G vector (1/distance) = 0.29816095
  grid = 15 15 15
  stencil order = 5
  estimated absolute RMS force accuracy = 0.02701408
  estimated relative force accuracy = 8.1352099e-05
  3d grid and FFT values/proc = 1728 150
  update every 1 steps, delay 4 steps, check yes
Step Temp Atoms Density TotEng PotEng KinEng E_coul E_vdwl E_long E_bond E_angle E_dihed Enthalpy Press
16000   201.880476     1518     1.044683 -6098.218227 -7011.099299   912.881071 22754.326867  1190.021665 -30955.495894     0.048057     0.000007     0.000000 -1166.721937 22314.150811
Loop time of 3.03667e-06 on 27 procs for 0 steps with 1518 atoms

# done post_propagate after NEMD
# selected salt 1503/1518
#The center of bimodal dist. on a positive side=2.000000
set type 10 type 3
Setting atom values ...
  1 settings made for type
set type 11 type 4
Setting atom values ...
  1 settings made for type
run 0 post no # lj type change (reject_delete)
PPPM initialization ...
  G vector (1/distance) = 0.29816095
  grid = 15 15 15
  stencil order = 5
  estimated absolute RMS force accuracy = 0.02701408
  estimated relative force accuracy = 8.1352099e-05
  3d grid and FFT values/proc = 1728 150
Step Temp Atoms Density TotEng PotEng KinEng E_coul E_vdwl E_long E_bond E_angle E_dihed Enthalpy Press
16000   201.880476     1518     1.044683 -5342.740051 -6255.621122   912.881071 22754.326867  1945.499841 -30955.495894     0.048057     0.000007     0.000000  2669.590586 36254.382780
Loop time of 2.7637e-06 on 27 procs for 0 steps with 1518 atoms

set atom 1503 charge 1.000000
Setting atom values ...
  1 settings made for charge
set atom 1518 charge -1.000000
Setting atom values ...
  1 settings made for charge
run 0 post no # charge return (reject_delete)
PPPM initialization ...
  G vector (1/distance) = 0.29816095
  grid = 15 15 15
  stencil order = 5
  estimated absolute RMS force accuracy = 0.027111459
  estimated relative force accuracy = 8.1645354e-05
  3d grid and FFT values/proc = 1728 150
Step Temp Atoms Density TotEng PotEng KinEng E_coul E_vdwl E_long E_bond E_angle E_dihed Enthalpy Press
16000   201.880476     1518     1.044683 -5428.304462 -6341.185533   912.881071 22738.394756  1945.499841 -31025.128194     0.048057     0.000007     0.000000  2555.511204 36125.357566
Loop time of 2.85626e-06 on 27 procs for 0 steps with 1518 atoms

run 0 post no # return_position back to old
PPPM initialization ...
  G vector (1/distance) = 0.29816095
  grid = 15 15 15
  stencil order = 5
  estimated absolute RMS force accuracy = 0.027111459
  estimated relative force accuracy = 8.1645354e-05
  3d grid and FFT values/proc = 1728 150
Step Temp Atoms Density TotEng PotEng KinEng E_coul E_vdwl E_long E_bond E_angle E_dihed Enthalpy Press
16000   201.124588     1518     1.044683 -6280.404769 -7189.867802   909.463033 22613.076943  1266.714616 -31069.707425     0.048057     0.000007     0.000000 -1073.958629 23558.250382
Loop time of 6.30893e-06 on 27 procs for 0 steps with 1518 atoms

group widom_test         delete
group noneq_run          delete
group noneq_run_rigid    delete
reset_timestep 6000

group   solvent delete
group   water   delete
group   ions    delete
group   wall    delete
group   flying  delete
group   eq_run  delete

group   solvent type 1 2
1500 atoms in group solvent
group   water   type 1 2
1500 atoms in group water
group   ions    type 3 4
18 atoms in group ions
group   wall    type 5 6 7
0 atoms in group wall
group   flying  type 8 9 10 11
0 atoms in group flying
group   eq_run  union solvent ions flying
1518 atoms in group eq_run

######################################################################
pair_style   lj/cut/coul/long 9.000000 9.000000
kspace_style pppm 0.0001

# LJ JC_SPCE (neq? False)
# real particles
pair_coeff  1 1     0.155354    3.169   9.0   # O O
pair_coeff  3 3     0.352644    2.1595  9.0   # Na Na
pair_coeff  4 4     0.0127851   4.8305  9.0   # Cl Cl
# flying particles
pair_coeff  8 8     0.155354    3.169   9.0   # O O
pair_coeff  10 10   0.352644    2.1595  9.0   # Na Na
pair_coeff  11 11   0.0127851   4.8305  9.0   # Cl Cl
# wall particles: not exist now
pair_coeff  * 5 0 0 9.0
pair_coeff  * 6 0 0 9.0
pair_coeff  * 7 0 0 9.0
# hydrogens
pair_coeff  * 2 0 0 9.0 # hydrogen
pair_coeff  * 9 0 0 9.0 # flying hydrogen

# intramolecular force field
bond_coeff  1   100000   1.0
angle_coeff 1   100000   109.470000

pair_modify  tail no shift yes mix arithmetic # LB mixing rule
neigh_modify delay 4 every 1 check yes page 500000 one 50000
######################################################################
# shake is off; should be a dummy run
timestep 2.000000
thermo 2000
fix  eqmd   eq_run npt temp 298.150000 298.150000 200.000000 iso 1.000000 1.000000 2000.000000
run 0 # (neq? False) MD run
PPPM initialization ...
  G vector (1/distance) = 0.29816095
  grid = 15 15 15
  stencil order = 5
  estimated absolute RMS force accuracy = 0.027111459
  estimated relative force accuracy = 8.1645354e-05
  3d grid and FFT values/proc = 1728 150
Step Temp Atoms Density TotEng PotEng KinEng E_coul E_vdwl E_long E_bond E_angle E_dihed Enthalpy Press
6000   201.124588     1518     1.044683 -6280.404769 -7189.867802   909.463033 22613.076943  1266.714616 -31069.707425     0.048057     0.000007     0.000000 -1073.958629 23558.250382
Loop time of 4.07841e-06 on 27 procs for 0 steps with 1518 atoms

unfix    eqmd
#chosen_cation deletion_move -12.012360 -0.022502 7.748459 # select_molecule
#chosen_anion deletion_move -9.514222 -3.980917 7.369098 # select_molecule
# selected_velocity_salt 1501 cation vel 0.002038 0.003636 0.003690
# selected_velocity_salt 1512 anion vel 0.000160 -0.002715 0.003419
group widom_test id  1501 1512 # select_molecule
2 atoms in group widom_test
set atom 1501 type 10
Setting atom values ...
  1 settings made for type
set atom 1512 type 11
Setting atom values ...
  1 settings made for type
run 0 post no # done selecting a flying molecule
PPPM initialization ...
  G vector (1/distance) = 0.29816095
  grid = 15 15 15
  stencil order = 5
  estimated absolute RMS force accuracy = 0.027111459
  estimated relative force accuracy = 8.1645354e-05
  3d grid and FFT values/proc = 1728 150
Step Temp Atoms Density TotEng PotEng KinEng E_coul E_vdwl E_long E_bond E_angle E_dihed Enthalpy Press
6000   201.124588     1518     1.044683 -6305.343332 -7214.806366   909.463033 22613.076943  1241.776053 -31069.707425     0.048057     0.000007     0.000000 -1230.490357 22962.814523
Loop time of 4.47026e-06 on 27 procs for 0 steps with 1518 atoms

group noneq_run_rigid    intersect   all         water               # select_salt no selection
1500 atoms in group noneq_run_rigid
group noneq_run_pre      subtract    all         noneq_run_rigid     # select_salt no selection
18 atoms in group noneq_run_pre
group noneq_run          subtract    noneq_run_pre   widom_test      # select_salt no selection
16 atoms in group noneq_run
group noneq_run_pre      delete
run 0 post no # mom rev random number
PPPM initialization ...
  G vector (1/distance) = 0.29816095
  grid = 15 15 15
  stencil order = 5
  estimated absolute RMS force accuracy = 0.027111459
  estimated relative force accuracy = 8.1645354e-05
  3d grid and FFT values/proc = 1728 150
Step Temp Atoms Density TotEng PotEng KinEng E_coul E_vdwl E_long E_bond E_angle E_dihed Enthalpy Press
6000   201.124588     1518     1.044683 -6305.343332 -7214.806366   909.463033 22613.076943  1241.776053 -31069.707425     0.048057     0.000007     0.000000 -1230.490357 22962.814523
Loop time of 3.84289e-06 on 27 procs for 0 steps with 1518 atoms

######################################################################
pair_style   lj/cut/coul/long/neq 14.000000 14.000000 6000 10000 3.000000 7 0 0 1.000000 3.000000 11 1.000000
kspace_style pppm/neq 0.0001 6000 10000 3.000000 7 0 0 1.000000 3.000000 11 1.000000

# LJ JC_SPCE (neq? True)
# real particles
pair_coeff  1 1     0.155354    3.169   14.0   # O O
pair_coeff  3 3     0.352644    2.1595  14.0   # Na Na
pair_coeff  4 4     0.0127851   4.8305  14.0   # Cl Cl
# flying particles
pair_coeff  8 8     0.155354    3.169   14.0   # O O
pair_coeff  10 10   0.352644    2.1595  14.0   # Na Na
pair_coeff  11 11   0.0127851   4.8305  14.0   # Cl Cl
# wall particles: not exist now
pair_coeff  * 5 0 0 14.0
pair_coeff  * 6 0 0 14.0
pair_coeff  * 7 0 0 14.0
# hydrogens
pair_coeff  * 2 0 0 14.0 # hydrogen
pair_coeff  * 9 0 0 14.0 # flying hydrogen

# intramolecular force field
bond_coeff  1   100000   1.0
angle_coeff 1   100000   109.470000

pair_modify  tail no shift yes mix arithmetic # LB mixing rule
neigh_modify delay 2 every 1 check yes page 500000 one 50000
######################################################################
timestep 4.000000
fix  eqmd  noneq_run_rigid     rigid/nve molecule  # rigid water
  500 rigid bodies with 1500 atoms
fix  eqions  noneq_run           nve                 # nve for non-rigid
run 10000 # (neq? True) MD run
4D PPPM initialization ...
  G vector (1/distance) = 0.19384192
  grid = 10 10 10
  stencil order = 5
  estimated absolute RMS force accuracy = 0.018453451
  estimated relative force accuracy = 5.557202e-05
  3d grid and FFT values/proc = 729 80
  update every 1 steps, delay 2 steps, check yes
Step Temp Atoms Density TotEng PotEng KinEng E_coul E_vdwl E_long E_bond E_angle E_dihed Enthalpy Press
6000   300.003269     1518     1.044683 -6326.519825 -7235.974880   909.455055 11755.830042  1220.558713 -20212.411699     0.048057     0.000007     0.000000 -5148.703976  5329.408953
Loop time of 43.2584 on 27 procs for 10000 steps with 1518 atoms

unfix    eqmd
unfix    eqions

group   solvent type 1 2
1500 atoms in group solvent
group   water   type 1 2
1500 atoms in group water
group   ions    type 3 4
18 atoms in group ions
group   wall    type 5 6 7
0 atoms in group wall
group   flying  type 8 9 10 11
2 atoms in group flying
group   eq_run  union solvent ions flying
1518 atoms in group eq_run

######################################################################
pair_style   lj/cut/coul/long 9.000000 9.000000
kspace_style pppm 0.0001

# LJ JC_SPCE (neq? False)
# real particles
pair_coeff  1 1     0.155354    3.169   9.0   # O O
pair_coeff  3 3     0.352644    2.1595  9.0   # Na Na
pair_coeff  4 4     0.0127851   4.8305  9.0   # Cl Cl
# flying particles
pair_coeff  8 8     0.155354    3.169   9.0   # O O
pair_coeff  10 10   0.352644    2.1595  9.0   # Na Na
pair_coeff  11 11   0.0127851   4.8305  9.0   # Cl Cl
# wall particles: not exist now
pair_coeff  * 5 0 0 9.0
pair_coeff  * 6 0 0 9.0
pair_coeff  * 7 0 0 9.0
# hydrogens
pair_coeff  * 2 0 0 9.0 # hydrogen
pair_coeff  * 9 0 0 9.0 # flying hydrogen

# intramolecular force field
bond_coeff  1   100000   1.0
angle_coeff 1   100000   109.470000

pair_modify  tail no shift yes mix arithmetic # LB mixing rule
neigh_modify delay 4 every 1 check yes page 500000 one 50000
######################################################################
# dealing with ideal flying particles: force field=JC_SPCE

# Non-interacting flying molecule (trial deletion)
# real particles
pair_coeff  1 1     0.155354    3.169   9.0   # O O
pair_coeff  3 3     0.352644    2.1595   9.0   # Na Na
pair_coeff  4 4     0.0127851   4.8305   9.0   # Cl Cl
# flying particles
pair_coeff  * 8  0 0 9.0    # non-interacting
pair_coeff  * 10 0 0 9.0    # non-interacting
pair_coeff  * 11 0 0 9.0    # non-interacting
# wall particles: not exist now
pair_coeff  * 5 0 0 9.0
pair_coeff  * 6 0 0 9.0
pair_coeff  * 7 0 0 9.0
# hydrogens
pair_coeff  * 2 0 0 9.0     # hydrogen
pair_coeff  * 9 0 0 9.0     # flying hydrogen

# intramolecular force field
bond_coeff  1   100000   1.0
angle_coeff 1   100000   109.470000

# flying water or ions
set type 8  charge 0.           # non-interacting
Setting atom values ...
  0 settings made for charge
set type 9  charge 0.           # non-interacting
Setting atom values ...
  0 settings made for charge
set type 10 charge 0.           # non-interacting
Setting atom values ...
  1 settings made for charge
set type 11 charge 0.           # non-interacting
Setting atom values ...
  1 settings made for charge

run 0 post no # making flying moelcule non-interacting
PPPM initialization ...
  G vector (1/distance) = 0.29816095
  grid = 15 15 15
  stencil order = 5
  estimated absolute RMS force accuracy = 0.02701408
  estimated relative force accuracy = 8.1352099e-05
  3d grid and FFT values/proc = 1728 150
  update every 1 steps, delay 4 steps, check yes
Step Temp Atoms Density TotEng PotEng KinEng E_coul E_vdwl E_long E_bond E_angle E_dihed Enthalpy Press
16000   198.053709     1518     1.044683 -6093.680851 -6989.257707   895.576856 22771.491769  1193.978663 -30954.776204     0.048057     0.000007     0.000000 -1182.914597 22220.351054
Loop time of 2.98885e-06 on 27 procs for 0 steps with 1518 atoms

# done post_propagate after NEMD
# selected salt 1501/1512
#The center of bimodal dist. on a positive side=2.000000
set type 10 type 3
Setting atom values ...
  1 settings made for type
set type 11 type 4
Setting atom values ...
  1 settings made for type
run 0 post no # lj type change (reject_delete)
PPPM initialization ...
  G vector (1/distance) = 0.29816095
  grid = 15 15 15
  stencil order = 5
  estimated absolute RMS force accuracy = 0.02701408
  estimated relative force accuracy = 8.1352099e-05
  3d grid and FFT values/proc = 1728 150
Step Temp Atoms Density TotEng PotEng KinEng E_coul E_vdwl E_long E_bond E_angle E_dihed Enthalpy Press
16000   198.053709     1518     1.044683 -5274.568190 -6170.145046   895.576856 22771.491769  2013.091324 -30954.776204     0.048057     0.000007     0.000000  3001.821572 37449.203741
Loop time of 2.69141e-06 on 27 procs for 0 steps with 1518 atoms

set atom 1501 charge 1.000000
Setting atom values ...
  1 settings made for charge
set atom 1512 charge -1.000000
Setting atom values ...
  1 settings made for charge
run 0 post no # charge return (reject_delete)
PPPM initialization ...
  G vector (1/distance) = 0.29816095
  grid = 15 15 15
  stencil order = 5
  estimated absolute RMS force accuracy = 0.027111459
  estimated relative force accuracy = 8.1645354e-05
  3d grid and FFT values/proc = 1728 150
Step Temp Atoms Density TotEng PotEng KinEng E_coul E_vdwl E_long E_bond E_angle E_dihed Enthalpy Press
16000   198.053709     1518     1.044683 -5366.543262 -6262.120118   895.576856 22745.310380  2013.091324 -31020.569886     0.048057     0.000007     0.000000  2878.959686 37309.446355
Loop time of 2.8203e-06 on 27 procs for 0 steps with 1518 atoms

run 0 post no # return_position back to old
PPPM initialization ...
  G vector (1/distance) = 0.29816095
  grid = 15 15 15
  stencil order = 5
  estimated absolute RMS force accuracy = 0.027111459
  estimated relative force accuracy = 8.1645354e-05
  3d grid and FFT values/proc = 1728 150
Loop time of 7.23163e-06 on 27 procs for 0 steps with 1518 atoms

group widom_test         delete
group noneq_run          delete
group noneq_run_rigid    delete
reset_timestep 6000

group   solvent delete
group   water   delete
group   ions    delete
group   wall    delete
group   flying  delete
group   eq_run  delete

log logfile_hneqMDMC.3
