group   solvent type 1 2
1500 atoms in group solvent
group   water   type 1 2
1500 atoms in group water
group   ions    type 3 4
18 atoms in group ions
group   wall    type 5 6 7
0 atoms in group wall
group   flying  type 8 9 10 11
0 atoms in group flying
group   eq_run  union solvent ions flying
1518 atoms in group eq_run

######################################################################
pair_style   lj/cut/coul/long 9.000000 9.000000
kspace_style pppm 0.0001

# LJ JC_SPCE (neq? False)
# real particles
pair_coeff  1 1     0.155354    3.169   9.0   # O O
pair_coeff  3 3     0.352644    2.1595  9.0   # Na Na
pair_coeff  4 4     0.0127851   4.8305  9.0   # Cl Cl
# flying particles
pair_coeff  8 8     0.155354    3.169   9.0   # O O
pair_coeff  10 10   0.352644    2.1595  9.0   # Na Na
pair_coeff  11 11   0.0127851   4.8305  9.0   # Cl Cl
# wall particles: not exist now
pair_coeff  * 5 0 0 9.0
pair_coeff  * 6 0 0 9.0
pair_coeff  * 7 0 0 9.0
# hydrogens
pair_coeff  * 2 0 0 9.0 # hydrogen
pair_coeff  * 9 0 0 9.0 # flying hydrogen

# intramolecular force field
bond_coeff  1   100000   1.0
angle_coeff 1   100000   109.470000

pair_modify  tail no shift yes mix arithmetic # LB mixing rule
neigh_modify delay 4 every 1 check yes page 500000 one 50000
######################################################################
fix fOHs        all    shake 0.00001 40 50000 b 1 a 1
       0 = # of size 2 clusters
       0 = # of size 3 clusters
       0 = # of size 4 clusters
     500 = # of frozen angles
  find clusters CPU = 0.002 seconds
timestep 2.000000
thermo 2000
fix  eqmd   eq_run npt temp 298.150000 298.150000 200.000000 iso 1.000000 1.000000 2000.000000
run 2000 # (neq? False) MD run
PPPM initialization ...
  G vector (1/distance) = 0.29728693
  grid = 15 15 15
  stencil order = 5
  estimated absolute RMS force accuracy = 0.027884198
  estimated relative force accuracy = 8.3972435e-05
  3d grid and FFT values/proc = 1728 150
SHAKE stats (type/ave/delta/count) on step 8000
Step Temp Atoms Density TotEng PotEng KinEng E_coul E_vdwl E_long E_bond E_angle E_dihed Enthalpy Press
8000   295.586506     1518     1.015733 -6274.600410 -7170.666121   896.065711 22620.279407  1190.214472 -30981.159999     0.000000     0.000000     0.000000 -6313.813117  -172.513658
Loop time of 3.15911 on 27 procs for 2000 steps with 1518 atoms

unfix fOHs
unfix    eqmd

group   solvent type 1 2
1500 atoms in group solvent
group   water   type 1 2
1500 atoms in group water
group   ions    type 3 4
18 atoms in group ions
group   wall    type 5 6 7
0 atoms in group wall
group   flying  type 8 9 10 11
0 atoms in group flying
group   eq_run  union solvent ions flying
1518 atoms in group eq_run

######################################################################
pair_style   lj/cut/coul/long 9.000000 9.000000
kspace_style pppm 0.0001

# LJ JC_SPCE (neq? False)
# real particles
pair_coeff  1 1     0.155354    3.169   9.0   # O O
pair_coeff  3 3     0.352644    2.1595  9.0   # Na Na
pair_coeff  4 4     0.0127851   4.8305  9.0   # Cl Cl
# flying particles
pair_coeff  8 8     0.155354    3.169   9.0   # O O
pair_coeff  10 10   0.352644    2.1595  9.0   # Na Na
pair_coeff  11 11   0.0127851   4.8305  9.0   # Cl Cl
# wall particles: not exist now
pair_coeff  * 5 0 0 9.0
pair_coeff  * 6 0 0 9.0
pair_coeff  * 7 0 0 9.0
# hydrogens
pair_coeff  * 2 0 0 9.0 # hydrogen
pair_coeff  * 9 0 0 9.0 # flying hydrogen

# intramolecular force field
bond_coeff  1   100000   1.0
angle_coeff 1   100000   109.470000

pair_modify  tail no shift yes mix arithmetic # LB mixing rule
neigh_modify delay 4 every 1 check yes page 500000 one 50000
######################################################################
# shake is off; should be a dummy run
timestep 2.000000
thermo 2000
fix  eqmd   eq_run npt temp 298.150000 298.150000 200.000000 iso 1.000000 1.000000 2000.000000
run 0 # (neq? False) MD run
PPPM initialization ...
  G vector (1/distance) = 0.2975635
  grid = 15 15 15
  stencil order = 5
  estimated absolute RMS force accuracy = 0.027637587
  estimated relative force accuracy = 8.3229771e-05
  3d grid and FFT values/proc = 1728 150
Step Temp Atoms Density TotEng PotEng KinEng E_coul E_vdwl E_long E_bond E_angle E_dihed Enthalpy Press
10000   196.981057     1518     1.024798 -6295.425258 -7186.151704   890.726446 22646.307626  1171.219688 -31003.725707     0.046685     0.000003     0.000000 -1544.229950 21089.112645
Loop time of 2.725e-06 on 27 procs for 0 steps with 1518 atoms

unfix    eqmd
#chosen_cation deletion_move -11.006175 0.543772 6.618617 # select_molecule
#chosen_anion deletion_move -6.564466 -4.667197 8.924593 # select_molecule
# selected_velocity_salt 1501 cation vel -0.000544 -0.000686 0.001300
# selected_velocity_salt 1512 anion vel 0.000994 0.001319 -0.001017
group widom_test id  1501 1512 # select_molecule
2 atoms in group widom_test
set atom 1501 type 10
Setting atom values ...
  1 settings made for type
set atom 1512 type 11
Setting atom values ...
  1 settings made for type
run 0 post no # done selecting a flying molecule
PPPM initialization ...
  G vector (1/distance) = 0.2975635
  grid = 15 15 15
  stencil order = 5
  estimated absolute RMS force accuracy = 0.027637587
  estimated relative force accuracy = 8.3229771e-05
  3d grid and FFT values/proc = 1728 150
Step Temp Atoms Density TotEng PotEng KinEng E_coul E_vdwl E_long E_bond E_angle E_dihed Enthalpy Press
10000   196.981057     1518     1.024798 -6312.397092 -7203.123538   890.726446 22646.307626  1154.247854 -31003.725707     0.046685     0.000003     0.000000 -1658.448746 20657.462922
Loop time of 2.69252e-06 on 27 procs for 0 steps with 1518 atoms

group noneq_run_rigid    intersect   all         water               # select_salt no selection
1500 atoms in group noneq_run_rigid
group noneq_run_pre      subtract    all         noneq_run_rigid     # select_salt no selection
18 atoms in group noneq_run_pre
group noneq_run          subtract    noneq_run_pre   widom_test      # select_salt no selection
16 atoms in group noneq_run
group noneq_run_pre      delete
run 0 post no # mom rev random number
PPPM initialization ...
  G vector (1/distance) = 0.2975635
  grid = 15 15 15
  stencil order = 5
  estimated absolute RMS force accuracy = 0.027637587
  estimated relative force accuracy = 8.3229771e-05
  3d grid and FFT values/proc = 1728 150
Step Temp Atoms Density TotEng PotEng KinEng E_coul E_vdwl E_long E_bond E_angle E_dihed Enthalpy Press
10000   196.981057     1518     1.024798 -6312.397092 -7203.123538   890.726446 22646.307626  1154.247854 -31003.725707     0.046685     0.000003     0.000000 -1658.448746 20657.462922
Loop time of 4.3987e-06 on 27 procs for 0 steps with 1518 atoms

######################################################################
pair_style   lj/cut/coul/long/neq 14.000000 14.000000 10000 10000 3.000000 7 0 0 1.000000 3.000000 11 1.000000
kspace_style pppm/neq 0.0001 10000 10000 3.000000 7 0 0 1.000000 3.000000 11 1.000000

# LJ JC_SPCE (neq? True)
# real particles
pair_coeff  1 1     0.155354    3.169   14.0   # O O
pair_coeff  3 3     0.352644    2.1595  14.0   # Na Na
pair_coeff  4 4     0.0127851   4.8305  14.0   # Cl Cl
# flying particles
pair_coeff  8 8     0.155354    3.169   14.0   # O O
pair_coeff  10 10   0.352644    2.1595  14.0   # Na Na
pair_coeff  11 11   0.0127851   4.8305  14.0   # Cl Cl
# wall particles: not exist now
pair_coeff  * 5 0 0 14.0
pair_coeff  * 6 0 0 14.0
pair_coeff  * 7 0 0 14.0
# hydrogens
pair_coeff  * 2 0 0 14.0 # hydrogen
pair_coeff  * 9 0 0 14.0 # flying hydrogen

# intramolecular force field
bond_coeff  1   100000   1.0
angle_coeff 1   100000   109.470000

pair_modify  tail no shift yes mix arithmetic # LB mixing rule
neigh_modify delay 2 every 1 check yes page 500000 one 50000
######################################################################
timestep 4.000000
fix  eqmd  noneq_run_rigid     rigid/nve molecule  # rigid water
  500 rigid bodies with 1500 atoms
fix  eqions  noneq_run           nve                 # nve for non-rigid
run 10000 # (neq? True) MD run
4D PPPM initialization ...
  G vector (1/distance) = 0.19346177
  grid = 10 10 10
  stencil order = 5
  estimated absolute RMS force accuracy = 0.01881225
  estimated relative force accuracy = 5.6652532e-05
  3d grid and FFT values/proc = 729 80
  update every 1 steps, delay 2 steps, check yes
Step Temp Atoms Density TotEng PotEng KinEng E_coul E_vdwl E_long E_bond E_angle E_dihed Enthalpy Press
10000   293.822526     1518     1.024798 -6340.495952 -7231.214185   890.718233 11816.439571  1125.926817 -20173.627261     0.046685     0.000003     0.000000 -5736.149115  2682.512017
Loop time of 42.9175 on 27 procs for 10000 steps with 1518 atoms

unfix    eqmd
unfix    eqions

group   solvent type 1 2
1500 atoms in group solvent
group   water   type 1 2
1500 atoms in group water
group   ions    type 3 4
18 atoms in group ions
group   wall    type 5 6 7
0 atoms in group wall
group   flying  type 8 9 10 11
2 atoms in group flying
group   eq_run  union solvent ions flying
1518 atoms in group eq_run

######################################################################
pair_style   lj/cut/coul/long 9.000000 9.000000
kspace_style pppm 0.0001

# LJ JC_SPCE (neq? False)
# real particles
pair_coeff  1 1     0.155354    3.169   9.0   # O O
pair_coeff  3 3     0.352644    2.1595  9.0   # Na Na
pair_coeff  4 4     0.0127851   4.8305  9.0   # Cl Cl
# flying particles
pair_coeff  8 8     0.155354    3.169   9.0   # O O
pair_coeff  10 10   0.352644    2.1595  9.0   # Na Na
pair_coeff  11 11   0.0127851   4.8305  9.0   # Cl Cl
# wall particles: not exist now
pair_coeff  * 5 0 0 9.0
pair_coeff  * 6 0 0 9.0
pair_coeff  * 7 0 0 9.0
# hydrogens
pair_coeff  * 2 0 0 9.0 # hydrogen
pair_coeff  * 9 0 0 9.0 # flying hydrogen

# intramolecular force field
bond_coeff  1   100000   1.0
angle_coeff 1   100000   109.470000

pair_modify  tail no shift yes mix arithmetic # LB mixing rule
neigh_modify delay 4 every 1 check yes page 500000 one 50000
######################################################################
# dealing with ideal flying particles: force field=JC_SPCE

# Non-interacting flying molecule (trial deletion)
# real particles
pair_coeff  1 1     0.155354    3.169   9.0   # O O
pair_coeff  3 3     0.352644    2.1595   9.0   # Na Na
pair_coeff  4 4     0.0127851   4.8305   9.0   # Cl Cl
# flying particles
pair_coeff  * 8  0 0 9.0    # non-interacting
pair_coeff  * 10 0 0 9.0    # non-interacting
pair_coeff  * 11 0 0 9.0    # non-interacting
# wall particles: not exist now
pair_coeff  * 5 0 0 9.0
pair_coeff  * 6 0 0 9.0
pair_coeff  * 7 0 0 9.0
# hydrogens
pair_coeff  * 2 0 0 9.0     # hydrogen
pair_coeff  * 9 0 0 9.0     # flying hydrogen

# intramolecular force field
bond_coeff  1   100000   1.0
angle_coeff 1   100000   109.470000

# flying water or ions
set type 8  charge 0.           # non-interacting
Setting atom values ...
  0 settings made for charge
set type 9  charge 0.           # non-interacting
Setting atom values ...
  0 settings made for charge
set type 10 charge 0.           # non-interacting
Setting atom values ...
  1 settings made for charge
set type 11 charge 0.           # non-interacting
Setting atom values ...
  1 settings made for charge

run 0 post no # making flying moelcule non-interacting
PPPM initialization ...
  G vector (1/distance) = 0.2975635
  grid = 15 15 15
  stencil order = 5
  estimated absolute RMS force accuracy = 0.027538317
  estimated relative force accuracy = 8.2930825e-05
  3d grid and FFT values/proc = 1728 150
  update every 1 steps, delay 4 steps, check yes
Step Temp Atoms Density TotEng PotEng KinEng E_coul E_vdwl E_long E_bond E_angle E_dihed Enthalpy Press
20000   200.538665     1518     1.024798 -6112.927838 -7019.741388   906.813550 22696.827296  1170.968128 -30887.583501     0.046685     0.000003     0.000000 -1328.478357 21236.717814
Loop time of 2.94919e-06 on 27 procs for 0 steps with 1518 atoms

# done post_propagate after NEMD
# selected salt 1501/1512
#The center of bimodal dist. on a positive side=2.000000
set type 10 type 3
Setting atom values ...
  1 settings made for type
set type 11 type 4
Setting atom values ...
  1 settings made for type
run 0 post no # lj type change (reject_delete)
PPPM initialization ...
  G vector (1/distance) = 0.2975635
  grid = 15 15 15
  stencil order = 5
  estimated absolute RMS force accuracy = 0.027538317
  estimated relative force accuracy = 8.2930825e-05
  3d grid and FFT values/proc = 1728 150
Step Temp Atoms Density TotEng PotEng KinEng E_coul E_vdwl E_long E_bond E_angle E_dihed Enthalpy Press
20000   200.538665     1518     1.024798 -4219.158920 -5125.972470   906.813550 22696.827296  3064.737046 -30887.583501     0.046685     0.000003     0.000000  8280.996544 55484.392777
Loop time of 2.97444e-06 on 27 procs for 0 steps with 1518 atoms

set atom 1501 charge 1.000000
Setting atom values ...
  1 settings made for charge
set atom 1512 charge -1.000000
Setting atom values ...
  1 settings made for charge
run 0 post no # charge return (reject_delete)
PPPM initialization ...
  G vector (1/distance) = 0.2975635
  grid = 15 15 15
  stencil order = 5
  estimated absolute RMS force accuracy = 0.027637587
  estimated relative force accuracy = 8.3229771e-05
  3d grid and FFT values/proc = 1728 150
Step Temp Atoms Density TotEng PotEng KinEng E_coul E_vdwl E_long E_bond E_angle E_dihed Enthalpy Press
20000   200.538665     1518     1.024798 -4277.468875 -5184.282426   906.813550 22688.972002  3064.737046 -30938.038162     0.046685     0.000003     0.000000  8203.375242 55398.675574
Loop time of 2.91e-06 on 27 procs for 0 steps with 1518 atoms

run 0 post no # return_position back to old
PPPM initialization ...
  G vector (1/distance) = 0.2975635
  grid = 15 15 15
  stencil order = 5
  estimated absolute RMS force accuracy = 0.027637587
  estimated relative force accuracy = 8.3229771e-05
  3d grid and FFT values/proc = 1728 150
Step Temp Atoms Density TotEng PotEng KinEng E_coul E_vdwl E_long E_bond E_angle E_dihed Enthalpy Press
20000   196.981057     1518     1.024798 -6295.425253 -7186.151699   890.726446 22646.307626  1171.219688 -31003.725701     0.046685     0.000003     0.000000 -1544.229946 21089.112638
Loop time of 2.65459e-06 on 27 procs for 0 steps with 1518 atoms

group widom_test         delete
group noneq_run          delete
group noneq_run_rigid    delete
reset_timestep 10000

group   solvent delete
group   water   delete
group   ions    delete
group   wall    delete
group   flying  delete
group   eq_run  delete

group   solvent type 1 2
1500 atoms in group solvent
group   water   type 1 2
1500 atoms in group water
group   ions    type 3 4
18 atoms in group ions
group   wall    type 5 6 7
0 atoms in group wall
group   flying  type 8 9 10 11
0 atoms in group flying
group   eq_run  union solvent ions flying
1518 atoms in group eq_run

######################################################################
pair_style   lj/cut/coul/long 9.000000 9.000000
kspace_style pppm 0.0001

# LJ JC_SPCE (neq? False)
# real particles
pair_coeff  1 1     0.155354    3.169   9.0   # O O
pair_coeff  3 3     0.352644    2.1595  9.0   # Na Na
pair_coeff  4 4     0.0127851   4.8305  9.0   # Cl Cl
# flying particles
pair_coeff  8 8     0.155354    3.169   9.0   # O O
pair_coeff  10 10   0.352644    2.1595  9.0   # Na Na
pair_coeff  11 11   0.0127851   4.8305  9.0   # Cl Cl
# wall particles: not exist now
pair_coeff  * 5 0 0 9.0
pair_coeff  * 6 0 0 9.0
pair_coeff  * 7 0 0 9.0
# hydrogens
pair_coeff  * 2 0 0 9.0 # hydrogen
pair_coeff  * 9 0 0 9.0 # flying hydrogen

# intramolecular force field
bond_coeff  1   100000   1.0
angle_coeff 1   100000   109.470000

pair_modify  tail no shift yes mix arithmetic # LB mixing rule
neigh_modify delay 4 every 1 check yes page 500000 one 50000
######################################################################
# shake is off; should be a dummy run
timestep 2.000000
thermo 2000
fix  eqmd   eq_run npt temp 298.150000 298.150000 200.000000 iso 1.000000 1.000000 2000.000000
run 0 # (neq? False) MD run
PPPM initialization ...
  G vector (1/distance) = 0.2975635
  grid = 15 15 15
  stencil order = 5
  estimated absolute RMS force accuracy = 0.027637587
  estimated relative force accuracy = 8.3229771e-05
  3d grid and FFT values/proc = 1728 150
Step Temp Atoms Density TotEng PotEng KinEng E_coul E_vdwl E_long E_bond E_angle E_dihed Enthalpy Press
10000   196.981057     1518     1.024798 -6295.425253 -7186.151699   890.726446 22646.307626  1171.219688 -31003.725701     0.046685     0.000003     0.000000 -1544.229946 21089.112638
Loop time of 7.12437e-06 on 27 procs for 0 steps with 1518 atoms

unfix    eqmd
#chosen_cation deletion_move 9.250681 -8.762512 -7.393656 # select_molecule
#chosen_anion deletion_move 9.513803 -4.387465 -10.284484 # select_molecule
# selected_velocity_salt 1508 cation vel 0.001445 -0.000688 -0.002303
# selected_velocity_salt 1516 anion vel 0.001079 0.005010 -0.002207
group widom_test id  1508 1516 # select_molecule
2 atoms in group widom_test
set atom 1508 type 10
Setting atom values ...
  1 settings made for type
set atom 1516 type 11
Setting atom values ...
  1 settings made for type
run 0 post no # done selecting a flying molecule
PPPM initialization ...
  G vector (1/distance) = 0.2975635
  grid = 15 15 15
  stencil order = 5
  estimated absolute RMS force accuracy = 0.027637587
  estimated relative force accuracy = 8.3229771e-05
  3d grid and FFT values/proc = 1728 150
Step Temp Atoms Density TotEng PotEng KinEng E_coul E_vdwl E_long E_bond E_angle E_dihed Enthalpy Press
10000   196.981057     1518     1.024798 -6312.113642 -7202.840087   890.726446 22646.307626  1154.531299 -31003.725701     0.046685     0.000003     0.000000 -1658.862951 20654.366241
Loop time of 3.16781e-06 on 27 procs for 0 steps with 1518 atoms

group noneq_run_rigid    intersect   all         water               # select_salt no selection
1500 atoms in group noneq_run_rigid
group noneq_run_pre      subtract    all         noneq_run_rigid     # select_salt no selection
18 atoms in group noneq_run_pre
group noneq_run          subtract    noneq_run_pre   widom_test      # select_salt no selection
16 atoms in group noneq_run
group noneq_run_pre      delete
run 0 post no # mom rev random number
PPPM initialization ...
  G vector (1/distance) = 0.2975635
  grid = 15 15 15
  stencil order = 5
  estimated absolute RMS force accuracy = 0.027637587
  estimated relative force accuracy = 8.3229771e-05
  3d grid and FFT values/proc = 1728 150
Step Temp Atoms Density TotEng PotEng KinEng E_coul E_vdwl E_long E_bond E_angle E_dihed Enthalpy Press
10000   196.981057     1518     1.024798 -6312.113642 -7202.840087   890.726446 22646.307626  1154.531299 -31003.725701     0.046685     0.000003     0.000000 -1658.862951 20654.366241
Loop time of 3.52285e-06 on 27 procs for 0 steps with 1518 atoms

######################################################################
pair_style   lj/cut/coul/long/neq 14.000000 14.000000 10000 10000 3.000000 7 0 0 1.000000 3.000000 11 1.000000
kspace_style pppm/neq 0.0001 10000 10000 3.000000 7 0 0 1.000000 3.000000 11 1.000000

# LJ JC_SPCE (neq? True)
# real particles
pair_coeff  1 1     0.155354    3.169   14.0   # O O
pair_coeff  3 3     0.352644    2.1595  14.0   # Na Na
pair_coeff  4 4     0.0127851   4.8305  14.0   # Cl Cl
# flying particles
pair_coeff  8 8     0.155354    3.169   14.0   # O O
pair_coeff  10 10   0.352644    2.1595  14.0   # Na Na
pair_coeff  11 11   0.0127851   4.8305  14.0   # Cl Cl
# wall particles: not exist now
pair_coeff  * 5 0 0 14.0
pair_coeff  * 6 0 0 14.0
pair_coeff  * 7 0 0 14.0
# hydrogens
pair_coeff  * 2 0 0 14.0 # hydrogen
pair_coeff  * 9 0 0 14.0 # flying hydrogen

# intramolecular force field
bond_coeff  1   100000   1.0
angle_coeff 1   100000   109.470000

pair_modify  tail no shift yes mix arithmetic # LB mixing rule
neigh_modify delay 2 every 1 check yes page 500000 one 50000
######################################################################
timestep 4.000000
fix  eqmd  noneq_run_rigid     rigid/nve molecule  # rigid water
  500 rigid bodies with 1500 atoms
fix  eqions  noneq_run           nve                 # nve for non-rigid
run 10000 # (neq? True) MD run
4D PPPM initialization ...
  G vector (1/distance) = 0.19346177
  grid = 10 10 10
  stencil order = 5
  estimated absolute RMS force accuracy = 0.01881225
  estimated relative force accuracy = 5.6652532e-05
  3d grid and FFT values/proc = 729 80
  update every 1 steps, delay 2 steps, check yes
Step Temp Atoms Density TotEng PotEng KinEng E_coul E_vdwl E_long E_bond E_angle E_dihed Enthalpy Press
10000   293.822526     1518     1.024798 -6340.495953 -7231.214186   890.718233 11816.439571  1125.926817 -20173.627262     0.046685     0.000003     0.000000 -5736.149117  2682.512012
Loop time of 42.1642 on 27 procs for 10000 steps with 1518 atoms

unfix    eqmd
unfix    eqions

group   solvent type 1 2
1500 atoms in group solvent
group   water   type 1 2
1500 atoms in group water
group   ions    type 3 4
18 atoms in group ions
group   wall    type 5 6 7
0 atoms in group wall
group   flying  type 8 9 10 11
2 atoms in group flying
group   eq_run  union solvent ions flying
1518 atoms in group eq_run

######################################################################
pair_style   lj/cut/coul/long 9.000000 9.000000
kspace_style pppm 0.0001

# LJ JC_SPCE (neq? False)
# real particles
pair_coeff  1 1     0.155354    3.169   9.0   # O O
pair_coeff  3 3     0.352644    2.1595  9.0   # Na Na
pair_coeff  4 4     0.0127851   4.8305  9.0   # Cl Cl
# flying particles
pair_coeff  8 8     0.155354    3.169   9.0   # O O
pair_coeff  10 10   0.352644    2.1595  9.0   # Na Na
pair_coeff  11 11   0.0127851   4.8305  9.0   # Cl Cl
# wall particles: not exist now
pair_coeff  * 5 0 0 9.0
pair_coeff  * 6 0 0 9.0
pair_coeff  * 7 0 0 9.0
# hydrogens
pair_coeff  * 2 0 0 9.0 # hydrogen
pair_coeff  * 9 0 0 9.0 # flying hydrogen

# intramolecular force field
bond_coeff  1   100000   1.0
angle_coeff 1   100000   109.470000

pair_modify  tail no shift yes mix arithmetic # LB mixing rule
neigh_modify delay 4 every 1 check yes page 500000 one 50000
######################################################################
# dealing with ideal flying particles: force field=JC_SPCE

# Non-interacting flying molecule (trial deletion)
# real particles
pair_coeff  1 1     0.155354    3.169   9.0   # O O
pair_coeff  3 3     0.352644    2.1595   9.0   # Na Na
pair_coeff  4 4     0.0127851   4.8305   9.0   # Cl Cl
# flying particles
pair_coeff  * 8  0 0 9.0    # non-interacting
pair_coeff  * 10 0 0 9.0    # non-interacting
pair_coeff  * 11 0 0 9.0    # non-interacting
# wall particles: not exist now
pair_coeff  * 5 0 0 9.0
pair_coeff  * 6 0 0 9.0
pair_coeff  * 7 0 0 9.0
# hydrogens
pair_coeff  * 2 0 0 9.0     # hydrogen
pair_coeff  * 9 0 0 9.0     # flying hydrogen

# intramolecular force field
bond_coeff  1   100000   1.0
angle_coeff 1   100000   109.470000

# flying water or ions
set type 8  charge 0.           # non-interacting
Setting atom values ...
  0 settings made for charge
set type 9  charge 0.           # non-interacting
Setting atom values ...
  0 settings made for charge
set type 10 charge 0.           # non-interacting
Setting atom values ...
  1 settings made for charge
set type 11 charge 0.           # non-interacting
Setting atom values ...
  1 settings made for charge

run 0 post no # making flying moelcule non-interacting
PPPM initialization ...
  G vector (1/distance) = 0.2975635
  grid = 15 15 15
  stencil order = 5
  estimated absolute RMS force accuracy = 0.027538317
  estimated relative force accuracy = 8.2930825e-05
  3d grid and FFT values/proc = 1728 150
  update every 1 steps, delay 4 steps, check yes
Step Temp Atoms Density TotEng PotEng KinEng E_coul E_vdwl E_long E_bond E_angle E_dihed Enthalpy Press
20000   192.516821     1518     1.024798 -6109.161592 -6979.701255   870.539663 22735.614883  1173.198814 -30888.561642     0.046685     0.000003     0.000000 -1323.696182 21241.227213
Loop time of 3.36222e-06 on 27 procs for 0 steps with 1518 atoms

# done post_propagate after NEMD
# selected salt 1508/1516
#The center of bimodal dist. on a positive side=2.000000
set type 10 type 3
Setting atom values ...
  1 settings made for type
set type 11 type 4
Setting atom values ...
  1 settings made for type
run 0 post no # lj type change (reject_delete)
PPPM initialization ...
  G vector (1/distance) = 0.2975635
  grid = 15 15 15
  stencil order = 5
  estimated absolute RMS force accuracy = 0.027538317
  estimated relative force accuracy = 8.2930825e-05
  3d grid and FFT values/proc = 1728 150
Step Temp Atoms Density TotEng PotEng KinEng E_coul E_vdwl E_long E_bond E_angle E_dihed Enthalpy Press
20000   192.516821     1518     1.024798 -3725.000605 -4595.540268   870.539663 22735.614883  3557.359802 -30888.561642     0.046685     0.000003     0.000000 10712.343828 64082.986127
Loop time of 2.88915e-06 on 27 procs for 0 steps with 1518 atoms

set atom 1508 charge 1.000000
Setting atom values ...
  1 settings made for charge
set atom 1516 charge -1.000000
Setting atom values ...
  1 settings made for charge
run 0 post no # charge return (reject_delete)
PPPM initialization ...
  G vector (1/distance) = 0.2975635
  grid = 15 15 15
  stencil order = 5
  estimated absolute RMS force accuracy = 0.027637587
  estimated relative force accuracy = 8.3229771e-05
  3d grid and FFT values/proc = 1728 150
Step Temp Atoms Density TotEng PotEng KinEng E_coul E_vdwl E_long E_bond E_angle E_dihed Enthalpy Press
20000   192.516821     1518     1.024798 -3824.418328 -4694.957992   870.539663 22711.685002  3557.359802 -30964.049484     0.046685     0.000003     0.000000 10579.743398 63935.698172
Loop time of 3.53952e-06 on 27 procs for 0 steps with 1518 atoms

run 0 post no # return_position back to old
PPPM initialization ...
  G vector (1/distance) = 0.2975635
  grid = 15 15 15
  stencil order = 5
  estimated absolute RMS force accuracy = 0.027637587
  estimated relative force accuracy = 8.3229771e-05
  3d grid and FFT values/proc = 1728 150
Step Temp Atoms Density TotEng PotEng KinEng E_coul E_vdwl E_long E_bond E_angle E_dihed Enthalpy Press
20000   196.981057     1518     1.024798 -6295.425254 -7186.151699   890.726446 22646.307626  1171.219688 -31003.725702     0.046685     0.000003     0.000000 -1544.229947 21089.112636
Loop time of 3.40974e-06 on 27 procs for 0 steps with 1518 atoms

group widom_test         delete
group noneq_run          delete
group noneq_run_rigid    delete
reset_timestep 10000

group   solvent delete
group   water   delete
group   ions    delete
group   wall    delete
group   flying  delete
group   eq_run  delete

group   solvent type 1 2
1500 atoms in group solvent
group   water   type 1 2
1500 atoms in group water
group   ions    type 3 4
18 atoms in group ions
group   wall    type 5 6 7
0 atoms in group wall
group   flying  type 8 9 10 11
0 atoms in group flying
group   eq_run  union solvent ions flying
1518 atoms in group eq_run

######################################################################
pair_style   lj/cut/coul/long 9.000000 9.000000
kspace_style pppm 0.0001

# LJ JC_SPCE (neq? False)
# real particles
pair_coeff  1 1     0.155354    3.169   9.0   # O O
pair_coeff  3 3     0.352644    2.1595  9.0   # Na Na
pair_coeff  4 4     0.0127851   4.8305  9.0   # Cl Cl
# flying particles
pair_coeff  8 8     0.155354    3.169   9.0   # O O
pair_coeff  10 10   0.352644    2.1595  9.0   # Na Na
pair_coeff  11 11   0.0127851   4.8305  9.0   # Cl Cl
# wall particles: not exist now
pair_coeff  * 5 0 0 9.0
pair_coeff  * 6 0 0 9.0
pair_coeff  * 7 0 0 9.0
# hydrogens
pair_coeff  * 2 0 0 9.0 # hydrogen
pair_coeff  * 9 0 0 9.0 # flying hydrogen

# intramolecular force field
bond_coeff  1   100000   1.0
angle_coeff 1   100000   109.470000

pair_modify  tail no shift yes mix arithmetic # LB mixing rule
neigh_modify delay 4 every 1 check yes page 500000 one 50000
######################################################################
# shake is off; should be a dummy run
timestep 2.000000
thermo 2000
fix  eqmd   eq_run npt temp 298.150000 298.150000 200.000000 iso 1.000000 1.000000 2000.000000
run 0 # (neq? False) MD run
PPPM initialization ...
  G vector (1/distance) = 0.2975635
  grid = 15 15 15
  stencil order = 5
  estimated absolute RMS force accuracy = 0.027637587
  estimated relative force accuracy = 8.3229771e-05
  3d grid and FFT values/proc = 1728 150
Step Temp Atoms Density TotEng PotEng KinEng E_coul E_vdwl E_long E_bond E_angle E_dihed Enthalpy Press
10000   196.981057     1518     1.024798 -6295.425254 -7186.151699   890.726446 22646.307626  1171.219688 -31003.725702     0.046685     0.000003     0.000000 -1544.229947 21089.112636
Loop time of 3.2627e-06 on 27 procs for 0 steps with 1518 atoms

unfix    eqmd
#chosen_cation deletion_move 9.250681 -8.762512 -7.393656 # select_molecule
#chosen_anion deletion_move 9.513803 -4.387465 -10.284484 # select_molecule
# selected_velocity_salt 1508 cation vel 0.001445 -0.000688 -0.002303
# selected_velocity_salt 1516 anion vel 0.001079 0.005010 -0.002207
group widom_test id  1508 1516 # select_molecule
2 atoms in group widom_test
set atom 1508 type 10
Setting atom values ...
  1 settings made for type
set atom 1516 type 11
Setting atom values ...
  1 settings made for type
run 0 post no # done selecting a flying molecule
PPPM initialization ...
  G vector (1/distance) = 0.2975635
  grid = 15 15 15
  stencil order = 5
  estimated absolute RMS force accuracy = 0.027637587
  estimated relative force accuracy = 8.3229771e-05
  3d grid and FFT values/proc = 1728 150
Step Temp Atoms Density TotEng PotEng KinEng E_coul E_vdwl E_long E_bond E_angle E_dihed Enthalpy Press
10000   196.981057     1518     1.024798 -6312.113642 -7202.840088   890.726446 22646.307626  1154.531299 -31003.725702     0.046685     0.000003     0.000000 -1658.862952 20654.366239
Loop time of 3.36215e-06 on 27 procs for 0 steps with 1518 atoms

group noneq_run_rigid    intersect   all         water               # select_salt no selection
1500 atoms in group noneq_run_rigid
group noneq_run_pre      subtract    all         noneq_run_rigid     # select_salt no selection
18 atoms in group noneq_run_pre
group noneq_run          subtract    noneq_run_pre   widom_test      # select_salt no selection
16 atoms in group noneq_run
group noneq_run_pre      delete
run 0 post no # mom rev random number
PPPM initialization ...
  G vector (1/distance) = 0.2975635
  grid = 15 15 15
  stencil order = 5
  estimated absolute RMS force accuracy = 0.027637587
  estimated relative force accuracy = 8.3229771e-05
  3d grid and FFT values/proc = 1728 150
Step Temp Atoms Density TotEng PotEng KinEng E_coul E_vdwl E_long E_bond E_angle E_dihed Enthalpy Press
10000   196.981057     1518     1.024798 -6312.113642 -7202.840088   890.726446 22646.307626  1154.531299 -31003.725702     0.046685     0.000003     0.000000 -1658.862952 20654.366239
Loop time of 2.92967e-06 on 27 procs for 0 steps with 1518 atoms

######################################################################
pair_style   lj/cut/coul/long/neq 14.000000 14.000000 10000 10000 3.000000 7 0 0 1.000000 3.000000 11 1.000000
kspace_style pppm/neq 0.0001 10000 10000 3.000000 7 0 0 1.000000 3.000000 11 1.000000

# LJ JC_SPCE (neq? True)
# real particles
pair_coeff  1 1     0.155354    3.169   14.0   # O O
pair_coeff  3 3     0.352644    2.1595  14.0   # Na Na
pair_coeff  4 4     0.0127851   4.8305  14.0   # Cl Cl
# flying particles
pair_coeff  8 8     0.155354    3.169   14.0   # O O
pair_coeff  10 10   0.352644    2.1595  14.0   # Na Na
pair_coeff  11 11   0.0127851   4.8305  14.0   # Cl Cl
# wall particles: not exist now
pair_coeff  * 5 0 0 14.0
pair_coeff  * 6 0 0 14.0
pair_coeff  * 7 0 0 14.0
# hydrogens
pair_coeff  * 2 0 0 14.0 # hydrogen
pair_coeff  * 9 0 0 14.0 # flying hydrogen

# intramolecular force field
bond_coeff  1   100000   1.0
angle_coeff 1   100000   109.470000

pair_modify  tail no shift yes mix arithmetic # LB mixing rule
neigh_modify delay 2 every 1 check yes page 500000 one 50000
######################################################################
timestep 4.000000
fix  eqmd  noneq_run_rigid     rigid/nve molecule  # rigid water
  500 rigid bodies with 1500 atoms
fix  eqions  noneq_run           nve                 # nve for non-rigid
run 10000 # (neq? True) MD run
4D PPPM initialization ...
  G vector (1/distance) = 0.19346177
  grid = 10 10 10
  stencil order = 5
  estimated absolute RMS force accuracy = 0.01881225
  estimated relative force accuracy = 5.6652532e-05
  3d grid and FFT values/proc = 729 80
  update every 1 steps, delay 2 steps, check yes
Step Temp Atoms Density TotEng PotEng KinEng E_coul E_vdwl E_long E_bond E_angle E_dihed Enthalpy Press
10000   293.822526     1518     1.024798 -6340.495951 -7231.214185   890.718233 11816.439571  1125.926817 -20173.627261     0.046685     0.000003     0.000000 -5736.149109  2682.512045
Loop time of 42.6283 on 27 procs for 10000 steps with 1518 atoms

unfix    eqmd
unfix    eqions

group   solvent type 1 2
1500 atoms in group solvent
group   water   type 1 2
1500 atoms in group water
group   ions    type 3 4
18 atoms in group ions
group   wall    type 5 6 7
0 atoms in group wall
group   flying  type 8 9 10 11
2 atoms in group flying
group   eq_run  union solvent ions flying
1518 atoms in group eq_run

######################################################################
pair_style   lj/cut/coul/long 9.000000 9.000000
kspace_style pppm 0.0001

# LJ JC_SPCE (neq? False)
# real particles
pair_coeff  1 1     0.155354    3.169   9.0   # O O
pair_coeff  3 3     0.352644    2.1595  9.0   # Na Na
pair_coeff  4 4     0.0127851   4.8305  9.0   # Cl Cl
# flying particles
pair_coeff  8 8     0.155354    3.169   9.0   # O O
pair_coeff  10 10   0.352644    2.1595  9.0   # Na Na
pair_coeff  11 11   0.0127851   4.8305  9.0   # Cl Cl
# wall particles: not exist now
pair_coeff  * 5 0 0 9.0
pair_coeff  * 6 0 0 9.0
pair_coeff  * 7 0 0 9.0
# hydrogens
pair_coeff  * 2 0 0 9.0 # hydrogen
pair_coeff  * 9 0 0 9.0 # flying hydrogen

# intramolecular force field
bond_coeff  1   100000   1.0
angle_coeff 1   100000   109.470000

pair_modify  tail no shift yes mix arithmetic # LB mixing rule
neigh_modify delay 4 every 1 check yes page 500000 one 50000
######################################################################
# dealing with ideal flying particles: force field=JC_SPCE

# Non-interacting flying molecule (trial deletion)
# real particles
pair_coeff  1 1     0.155354    3.169   9.0   # O O
pair_coeff  3 3     0.352644    2.1595   9.0   # Na Na
pair_coeff  4 4     0.0127851   4.8305   9.0   # Cl Cl
# flying particles
pair_coeff  * 8  0 0 9.0    # non-interacting
pair_coeff  * 10 0 0 9.0    # non-interacting
pair_coeff  * 11 0 0 9.0    # non-interacting
# wall particles: not exist now
pair_coeff  * 5 0 0 9.0
pair_coeff  * 6 0 0 9.0
pair_coeff  * 7 0 0 9.0
# hydrogens
pair_coeff  * 2 0 0 9.0     # hydrogen
pair_coeff  * 9 0 0 9.0     # flying hydrogen

# intramolecular force field
bond_coeff  1   100000   1.0
angle_coeff 1   100000   109.470000

# flying water or ions
set type 8  charge 0.           # non-interacting
Setting atom values ...
  0 settings made for charge
set type 9  charge 0.           # non-interacting
Setting atom values ...
  0 settings made for charge
set type 10 charge 0.           # non-interacting
Setting atom values ...
  1 settings made for charge
set type 11 charge 0.           # non-interacting
Setting atom values ...
  1 settings made for charge

run 0 post no # making flying moelcule non-interacting
PPPM initialization ...
  G vector (1/distance) = 0.2975635
  grid = 15 15 15
  stencil order = 5
  estimated absolute RMS force accuracy = 0.027538317
  estimated relative force accuracy = 8.2930825e-05
  3d grid and FFT values/proc = 1728 150
  update every 1 steps, delay 4 steps, check yes
Step Temp Atoms Density TotEng PotEng KinEng E_coul E_vdwl E_long E_bond E_angle E_dihed Enthalpy Press
20000   190.576278     1518     1.024798 -6106.993280 -6968.758028   861.764747 22663.286913  1259.403168 -30891.494798     0.046685     0.000003     0.000000  -975.212152 22778.417483
Loop time of 4.23422e-06 on 27 procs for 0 steps with 1518 atoms

# done post_propagate after NEMD
# selected salt 1508/1516
#The center of bimodal dist. on a positive side=2.000000
set type 10 type 3
Setting atom values ...
  1 settings made for type
set type 11 type 4
Setting atom values ...
  1 settings made for type
run 0 post no # lj type change (reject_delete)
PPPM initialization ...
  G vector (1/distance) = 0.2975635
  grid = 15 15 15
  stencil order = 5
  estimated absolute RMS force accuracy = 0.027538317
  estimated relative force accuracy = 8.2930825e-05
  3d grid and FFT values/proc = 1728 150
Step Temp Atoms Density TotEng PotEng KinEng E_coul E_vdwl E_long E_bond E_angle E_dihed Enthalpy Press
20000   190.576278     1518     1.024798 13424723.631791 13423861.867044   861.764747 22663.286913 13432090.028240 -30891.494798     0.046685     0.000003     0.000000 67160297.770777 238515889.677206
Loop time of 3.1617e-06 on 27 procs for 0 steps with 1518 atoms

set atom 1508 charge 1.000000
Setting atom values ...
  1 settings made for charge
set atom 1516 charge -1.000000
Setting atom values ...
  1 settings made for charge
run 0 post no # charge return (reject_delete)
PPPM initialization ...
  G vector (1/distance) = 0.2975635
  grid = 15 15 15
  stencil order = 5
  estimated absolute RMS force accuracy = 0.027637587
  estimated relative force accuracy = 8.3229771e-05
  3d grid and FFT values/proc = 1728 150
Step Temp Atoms Density TotEng PotEng KinEng E_coul E_vdwl E_long E_bond E_angle E_dihed Enthalpy Press
20000   190.576278     1518     1.024798 13424491.248859 13423629.484112   861.764747 22498.290425 13432090.028240 -30958.881242     0.046685     0.000003     0.000000 67159987.874253 238515545.617919
Loop time of 3.31393e-06 on 27 procs for 0 steps with 1518 atoms

run 0 post no # return_position back to old
PPPM initialization ...
  G vector (1/distance) = 0.2975635
  grid = 15 15 15
  stencil order = 5
  estimated absolute RMS force accuracy = 0.027637587
  estimated relative force accuracy = 8.3229771e-05
  3d grid and FFT values/proc = 1728 150
Step Temp Atoms Density TotEng PotEng KinEng E_coul E_vdwl E_long E_bond E_angle E_dihed Enthalpy Press
20000   196.981057     1518     1.024798 -6295.425254 -7186.151700   890.726446 22646.307626  1171.219688 -31003.725702     0.046685     0.000003     0.000000 -1544.229946 21089.112644
Loop time of 2.85474e-06 on 27 procs for 0 steps with 1518 atoms

group widom_test         delete
group noneq_run          delete
group noneq_run_rigid    delete
reset_timestep 10000

group   solvent delete
group   water   delete
group   ions    delete
group   wall    delete
group   flying  delete
group   eq_run  delete

group   solvent type 1 2
1500 atoms in group solvent
group   water   type 1 2
1500 atoms in group water
group   ions    type 3 4
18 atoms in group ions
group   wall    type 5 6 7
0 atoms in group wall
group   flying  type 8 9 10 11
0 atoms in group flying
group   eq_run  union solvent ions flying
1518 atoms in group eq_run

######################################################################
pair_style   lj/cut/coul/long 9.000000 9.000000
kspace_style pppm 0.0001

# LJ JC_SPCE (neq? False)
# real particles
pair_coeff  1 1     0.155354    3.169   9.0   # O O
pair_coeff  3 3     0.352644    2.1595  9.0   # Na Na
pair_coeff  4 4     0.0127851   4.8305  9.0   # Cl Cl
# flying particles
pair_coeff  8 8     0.155354    3.169   9.0   # O O
pair_coeff  10 10   0.352644    2.1595  9.0   # Na Na
pair_coeff  11 11   0.0127851   4.8305  9.0   # Cl Cl
# wall particles: not exist now
pair_coeff  * 5 0 0 9.0
pair_coeff  * 6 0 0 9.0
pair_coeff  * 7 0 0 9.0
# hydrogens
pair_coeff  * 2 0 0 9.0 # hydrogen
pair_coeff  * 9 0 0 9.0 # flying hydrogen

# intramolecular force field
bond_coeff  1   100000   1.0
angle_coeff 1   100000   109.470000

pair_modify  tail no shift yes mix arithmetic # LB mixing rule
neigh_modify delay 4 every 1 check yes page 500000 one 50000
######################################################################
# shake is off; should be a dummy run
timestep 2.000000
thermo 2000
fix  eqmd   eq_run npt temp 298.150000 298.150000 200.000000 iso 1.000000 1.000000 2000.000000
run 0 # (neq? False) MD run
PPPM initialization ...
  G vector (1/distance) = 0.2975635
  grid = 15 15 15
  stencil order = 5
  estimated absolute RMS force accuracy = 0.027637587
  estimated relative force accuracy = 8.3229771e-05
  3d grid and FFT values/proc = 1728 150
Step Temp Atoms Density TotEng PotEng KinEng E_coul E_vdwl E_long E_bond E_angle E_dihed Enthalpy Press
10000   196.981057     1518     1.024798 -6295.425254 -7186.151700   890.726446 22646.307626  1171.219688 -31003.725702     0.046685     0.000003     0.000000 -1544.229946 21089.112644
Loop time of 3.16889e-06 on 27 procs for 0 steps with 1518 atoms

unfix    eqmd
#chosen_cation deletion_move 9.250681 -8.762512 -7.393656 # select_molecule
#chosen_anion deletion_move 9.513803 -4.387465 -10.284484 # select_molecule
# selected_velocity_salt 1508 cation vel 0.001445 -0.000688 -0.002303
# selected_velocity_salt 1516 anion vel 0.001079 0.005010 -0.002207
group widom_test id  1508 1516 # select_molecule
2 atoms in group widom_test
set atom 1508 type 10
Setting atom values ...
  1 settings made for type
set atom 1516 type 11
Setting atom values ...
  1 settings made for type
run 0 post no # done selecting a flying molecule
PPPM initialization ...
  G vector (1/distance) = 0.2975635
  grid = 15 15 15
  stencil order = 5
  estimated absolute RMS force accuracy = 0.027637587
  estimated relative force accuracy = 8.3229771e-05
  3d grid and FFT values/proc = 1728 150
Step Temp Atoms Density TotEng PotEng KinEng E_coul E_vdwl E_long E_bond E_angle E_dihed Enthalpy Press
10000   196.981057     1518     1.024798 -6312.113643 -7202.840089   890.726446 22646.307626  1154.531299 -31003.725702     0.046685     0.000003     0.000000 -1658.862951 20654.366247
Loop time of 2.77481e-06 on 27 procs for 0 steps with 1518 atoms

group noneq_run_rigid    intersect   all         water               # select_salt no selection
1500 atoms in group noneq_run_rigid
group noneq_run_pre      subtract    all         noneq_run_rigid     # select_salt no selection
18 atoms in group noneq_run_pre
group noneq_run          subtract    noneq_run_pre   widom_test      # select_salt no selection
16 atoms in group noneq_run
group noneq_run_pre      delete
run 0 post no # mom rev random number
PPPM initialization ...
  G vector (1/distance) = 0.2975635
  grid = 15 15 15
  stencil order = 5
  estimated absolute RMS force accuracy = 0.027637587
  estimated relative force accuracy = 8.3229771e-05
  3d grid and FFT values/proc = 1728 150
Step Temp Atoms Density TotEng PotEng KinEng E_coul E_vdwl E_long E_bond E_angle E_dihed Enthalpy Press
10000   196.981057     1518     1.024798 -6312.113643 -7202.840089   890.726446 22646.307626  1154.531299 -31003.725702     0.046685     0.000003     0.000000 -1658.862951 20654.366247
Loop time of 2.65348e-06 on 27 procs for 0 steps with 1518 atoms

######################################################################
pair_style   lj/cut/coul/long/neq 14.000000 14.000000 10000 10000 3.000000 7 0 0 1.000000 3.000000 11 1.000000
kspace_style pppm/neq 0.0001 10000 10000 3.000000 7 0 0 1.000000 3.000000 11 1.000000

# LJ JC_SPCE (neq? True)
# real particles
pair_coeff  1 1     0.155354    3.169   14.0   # O O
pair_coeff  3 3     0.352644    2.1595  14.0   # Na Na
pair_coeff  4 4     0.0127851   4.8305  14.0   # Cl Cl
# flying particles
pair_coeff  8 8     0.155354    3.169   14.0   # O O
pair_coeff  10 10   0.352644    2.1595  14.0   # Na Na
pair_coeff  11 11   0.0127851   4.8305  14.0   # Cl Cl
# wall particles: not exist now
pair_coeff  * 5 0 0 14.0
pair_coeff  * 6 0 0 14.0
pair_coeff  * 7 0 0 14.0
# hydrogens
pair_coeff  * 2 0 0 14.0 # hydrogen
pair_coeff  * 9 0 0 14.0 # flying hydrogen

# intramolecular force field
bond_coeff  1   100000   1.0
angle_coeff 1   100000   109.470000

pair_modify  tail no shift yes mix arithmetic # LB mixing rule
neigh_modify delay 2 every 1 check yes page 500000 one 50000
######################################################################
timestep 4.000000
fix  eqmd  noneq_run_rigid     rigid/nve molecule  # rigid water
  500 rigid bodies with 1500 atoms
fix  eqions  noneq_run           nve                 # nve for non-rigid
run 10000 # (neq? True) MD run
4D PPPM initialization ...
  G vector (1/distance) = 0.19346177
  grid = 10 10 10
  stencil order = 5
  estimated absolute RMS force accuracy = 0.01881225
  estimated relative force accuracy = 5.6652532e-05
  3d grid and FFT values/proc = 729 80
  update every 1 steps, delay 2 steps, check yes
Step Temp Atoms Density TotEng PotEng KinEng E_coul E_vdwl E_long E_bond E_angle E_dihed Enthalpy Press
10000   293.822526     1518     1.024798 -6340.495951 -7231.214184   890.718233 11816.439571  1125.926817 -20173.627260     0.046685     0.000003     0.000000 -5736.149114  2682.512016
Loop time of 42.2802 on 27 procs for 10000 steps with 1518 atoms

unfix    eqmd
unfix    eqions

group   solvent type 1 2
1500 atoms in group solvent
group   water   type 1 2
1500 atoms in group water
group   ions    type 3 4
18 atoms in group ions
group   wall    type 5 6 7
0 atoms in group wall
group   flying  type 8 9 10 11
2 atoms in group flying
group   eq_run  union solvent ions flying
1518 atoms in group eq_run

######################################################################
pair_style   lj/cut/coul/long 9.000000 9.000000
kspace_style pppm 0.0001

# LJ JC_SPCE (neq? False)
# real particles
pair_coeff  1 1     0.155354    3.169   9.0   # O O
pair_coeff  3 3     0.352644    2.1595  9.0   # Na Na
pair_coeff  4 4     0.0127851   4.8305  9.0   # Cl Cl
# flying particles
pair_coeff  8 8     0.155354    3.169   9.0   # O O
pair_coeff  10 10   0.352644    2.1595  9.0   # Na Na
pair_coeff  11 11   0.0127851   4.8305  9.0   # Cl Cl
# wall particles: not exist now
pair_coeff  * 5 0 0 9.0
pair_coeff  * 6 0 0 9.0
pair_coeff  * 7 0 0 9.0
# hydrogens
pair_coeff  * 2 0 0 9.0 # hydrogen
pair_coeff  * 9 0 0 9.0 # flying hydrogen

# intramolecular force field
bond_coeff  1   100000   1.0
angle_coeff 1   100000   109.470000

pair_modify  tail no shift yes mix arithmetic # LB mixing rule
neigh_modify delay 4 every 1 check yes page 500000 one 50000
######################################################################
# dealing with ideal flying particles: force field=JC_SPCE

# Non-interacting flying molecule (trial deletion)
# real particles
pair_coeff  1 1     0.155354    3.169   9.0   # O O
pair_coeff  3 3     0.352644    2.1595   9.0   # Na Na
pair_coeff  4 4     0.0127851   4.8305   9.0   # Cl Cl
# flying particles
pair_coeff  * 8  0 0 9.0    # non-interacting
pair_coeff  * 10 0 0 9.0    # non-interacting
pair_coeff  * 11 0 0 9.0    # non-interacting
# wall particles: not exist now
pair_coeff  * 5 0 0 9.0
pair_coeff  * 6 0 0 9.0
pair_coeff  * 7 0 0 9.0
# hydrogens
pair_coeff  * 2 0 0 9.0     # hydrogen
pair_coeff  * 9 0 0 9.0     # flying hydrogen

# intramolecular force field
bond_coeff  1   100000   1.0
angle_coeff 1   100000   109.470000

# flying water or ions
set type 8  charge 0.           # non-interacting
Setting atom values ...
  0 settings made for charge
set type 9  charge 0.           # non-interacting
Setting atom values ...
  0 settings made for charge
set type 10 charge 0.           # non-interacting
Setting atom values ...
  1 settings made for charge
set type 11 charge 0.           # non-interacting
Setting atom values ...
  1 settings made for charge

run 0 post no # making flying moelcule non-interacting
PPPM initialization ...
  G vector (1/distance) = 0.2975635
  grid = 15 15 15
  stencil order = 5
  estimated absolute RMS force accuracy = 0.027538317
  estimated relative force accuracy = 8.2930825e-05
  3d grid and FFT values/proc = 1728 150
  update every 1 steps, delay 4 steps, check yes
Step Temp Atoms Density TotEng PotEng KinEng E_coul E_vdwl E_long E_bond E_angle E_dihed Enthalpy Press
20000   188.290266     1518     1.024798 -6113.312707 -6964.740362   851.427655 22748.785748  1180.745460 -30894.318259     0.046685     0.000003     0.000000 -1320.206572 21275.142069
Loop time of 2.6903e-06 on 27 procs for 0 steps with 1518 atoms

# done post_propagate after NEMD
# selected salt 1508/1516
#The center of bimodal dist. on a positive side=2.000000
set type 10 type 3
Setting atom values ...
  1 settings made for type
set type 11 type 4
Setting atom values ...
  1 settings made for type
run 0 post no # lj type change (reject_delete)
PPPM initialization ...
  G vector (1/distance) = 0.2975635
  grid = 15 15 15
  stencil order = 5
  estimated absolute RMS force accuracy = 0.027538317
  estimated relative force accuracy = 8.2930825e-05
  3d grid and FFT values/proc = 1728 150
Step Temp Atoms Density TotEng PotEng KinEng E_coul E_vdwl E_long E_bond E_angle E_dihed Enthalpy Press
20000   188.290266     1518     1.024798 -3227.260022 -4078.687677   851.427655 22748.785748  4066.798145 -30894.318259     0.046685     0.000003     0.000000 13252.417452 73148.282071
Loop time of 2.98337e-06 on 27 procs for 0 steps with 1518 atoms

set atom 1508 charge 1.000000
Setting atom values ...
  1 settings made for charge
set atom 1516 charge -1.000000
Setting atom values ...
  1 settings made for charge
run 0 post no # charge return (reject_delete)
PPPM initialization ...
  G vector (1/distance) = 0.2975635
  grid = 15 15 15
  stencil order = 5
  estimated absolute RMS force accuracy = 0.027637587
  estimated relative force accuracy = 8.3229771e-05
  3d grid and FFT values/proc = 1728 150
Step Temp Atoms Density TotEng PotEng KinEng E_coul E_vdwl E_long E_bond E_angle E_dihed Enthalpy Press
20000   188.290266     1518     1.024798 -3313.886431 -4165.314086   851.427655 22735.752476  4066.798145 -30967.911396     0.046685     0.000003     0.000000 13136.823901 73019.705725
Loop time of 2.72015e-06 on 27 procs for 0 steps with 1518 atoms

run 0 post no # return_position back to old
PPPM initialization ...
  G vector (1/distance) = 0.2975635
  grid = 15 15 15
  stencil order = 5
  estimated absolute RMS force accuracy = 0.027637587
  estimated relative force accuracy = 8.3229771e-05
  3d grid and FFT values/proc = 1728 150
Step Temp Atoms Density TotEng PotEng KinEng E_coul E_vdwl E_long E_bond E_angle E_dihed Enthalpy Press
20000   196.981057     1518     1.024798 -6295.425253 -7186.151698   890.726446 22646.307626  1171.219688 -31003.725701     0.046685     0.000003     0.000000 -1544.229947 21089.112634
Loop time of 2.96381e-06 on 27 procs for 0 steps with 1518 atoms

group widom_test         delete
group noneq_run          delete
group noneq_run_rigid    delete
reset_timestep 10000

group   solvent delete
group   water   delete
group   ions    delete
group   wall    delete
group   flying  delete
group   eq_run  delete

group   solvent type 1 2
1500 atoms in group solvent
group   water   type 1 2
1500 atoms in group water
group   ions    type 3 4
18 atoms in group ions
group   wall    type 5 6 7
0 atoms in group wall
group   flying  type 8 9 10 11
0 atoms in group flying
group   eq_run  union solvent ions flying
1518 atoms in group eq_run

######################################################################
pair_style   lj/cut/coul/long 9.000000 9.000000
kspace_style pppm 0.0001

# LJ JC_SPCE (neq? False)
# real particles
pair_coeff  1 1     0.155354    3.169   9.0   # O O
pair_coeff  3 3     0.352644    2.1595  9.0   # Na Na
pair_coeff  4 4     0.0127851   4.8305  9.0   # Cl Cl
# flying particles
pair_coeff  8 8     0.155354    3.169   9.0   # O O
pair_coeff  10 10   0.352644    2.1595  9.0   # Na Na
pair_coeff  11 11   0.0127851   4.8305  9.0   # Cl Cl
# wall particles: not exist now
pair_coeff  * 5 0 0 9.0
pair_coeff  * 6 0 0 9.0
pair_coeff  * 7 0 0 9.0
# hydrogens
pair_coeff  * 2 0 0 9.0 # hydrogen
pair_coeff  * 9 0 0 9.0 # flying hydrogen

# intramolecular force field
bond_coeff  1   100000   1.0
angle_coeff 1   100000   109.470000

pair_modify  tail no shift yes mix arithmetic # LB mixing rule
neigh_modify delay 4 every 1 check yes page 500000 one 50000
######################################################################
# shake is off; should be a dummy run
timestep 2.000000
thermo 2000
fix  eqmd   eq_run npt temp 298.150000 298.150000 200.000000 iso 1.000000 1.000000 2000.000000
run 0 # (neq? False) MD run
PPPM initialization ...
  G vector (1/distance) = 0.2975635
  grid = 15 15 15
  stencil order = 5
  estimated absolute RMS force accuracy = 0.027637587
  estimated relative force accuracy = 8.3229771e-05
  3d grid and FFT values/proc = 1728 150
Step Temp Atoms Density TotEng PotEng KinEng E_coul E_vdwl E_long E_bond E_angle E_dihed Enthalpy Press
10000   196.981057     1518     1.024798 -6295.425253 -7186.151698   890.726446 22646.307626  1171.219688 -31003.725701     0.046685     0.000003     0.000000 -1544.229947 21089.112634
Loop time of 2.94315e-06 on 27 procs for 0 steps with 1518 atoms

unfix    eqmd
#chosen_cation deletion_move 0.746519 7.562735 -11.592915 # select_molecule
#chosen_anion deletion_move -4.176883 1.461559 9.074544 # select_molecule
# selected_velocity_salt 1503 cation vel -0.004968 -0.001456 -0.002348
# selected_velocity_salt 1518 anion vel -0.000779 -0.001038 -0.001224
group widom_test id  1503 1518 # select_molecule
2 atoms in group widom_test
set atom 1503 type 10
Setting atom values ...
  1 settings made for type
set atom 1518 type 11
Setting atom values ...
  1 settings made for type
run 0 post no # done selecting a flying molecule
PPPM initialization ...
  G vector (1/distance) = 0.2975635
  grid = 15 15 15
  stencil order = 5
  estimated absolute RMS force accuracy = 0.027637587
  estimated relative force accuracy = 8.3229771e-05
  3d grid and FFT values/proc = 1728 150
Step Temp Atoms Density TotEng PotEng KinEng E_coul E_vdwl E_long E_bond E_angle E_dihed Enthalpy Press
10000   196.981057     1518     1.024798 -6315.182361 -7205.908807   890.726446 22646.307626  1151.462579 -31003.725701     0.046685     0.000003     0.000000 -1676.493382 20589.731227
Loop time of 2.94774e-06 on 27 procs for 0 steps with 1518 atoms

group noneq_run_rigid    intersect   all         water               # select_salt no selection
1500 atoms in group noneq_run_rigid
group noneq_run_pre      subtract    all         noneq_run_rigid     # select_salt no selection
18 atoms in group noneq_run_pre
group noneq_run          subtract    noneq_run_pre   widom_test      # select_salt no selection
16 atoms in group noneq_run
group noneq_run_pre      delete
run 0 post no # mom rev random number
PPPM initialization ...
  G vector (1/distance) = 0.2975635
  grid = 15 15 15
  stencil order = 5
  estimated absolute RMS force accuracy = 0.027637587
  estimated relative force accuracy = 8.3229771e-05
  3d grid and FFT values/proc = 1728 150
Step Temp Atoms Density TotEng PotEng KinEng E_coul E_vdwl E_long E_bond E_angle E_dihed Enthalpy Press
10000   196.981057     1518     1.024798 -6315.182361 -7205.908807   890.726446 22646.307626  1151.462579 -31003.725701     0.046685     0.000003     0.000000 -1676.493382 20589.731227
Loop time of 3.04626e-06 on 27 procs for 0 steps with 1518 atoms

######################################################################
pair_style   lj/cut/coul/long/neq 14.000000 14.000000 10000 10000 3.000000 7 0 0 1.000000 3.000000 11 1.000000
kspace_style pppm/neq 0.0001 10000 10000 3.000000 7 0 0 1.000000 3.000000 11 1.000000

# LJ JC_SPCE (neq? True)
# real particles
pair_coeff  1 1     0.155354    3.169   14.0   # O O
pair_coeff  3 3     0.352644    2.1595  14.0   # Na Na
pair_coeff  4 4     0.0127851   4.8305  14.0   # Cl Cl
# flying particles
pair_coeff  8 8     0.155354    3.169   14.0   # O O
pair_coeff  10 10   0.352644    2.1595  14.0   # Na Na
pair_coeff  11 11   0.0127851   4.8305  14.0   # Cl Cl
# wall particles: not exist now
pair_coeff  * 5 0 0 14.0
pair_coeff  * 6 0 0 14.0
pair_coeff  * 7 0 0 14.0
# hydrogens
pair_coeff  * 2 0 0 14.0 # hydrogen
pair_coeff  * 9 0 0 14.0 # flying hydrogen

# intramolecular force field
bond_coeff  1   100000   1.0
angle_coeff 1   100000   109.470000

pair_modify  tail no shift yes mix arithmetic # LB mixing rule
neigh_modify delay 2 every 1 check yes page 500000 one 50000
######################################################################
timestep 4.000000
fix  eqmd  noneq_run_rigid     rigid/nve molecule  # rigid water
  500 rigid bodies with 1500 atoms
fix  eqions  noneq_run           nve                 # nve for non-rigid
run 10000 # (neq? True) MD run
4D PPPM initialization ...
  G vector (1/distance) = 0.19346177
  grid = 10 10 10
  stencil order = 5
  estimated absolute RMS force accuracy = 0.01881225
  estimated relative force accuracy = 5.6652532e-05
  3d grid and FFT values/proc = 729 80
  update every 1 steps, delay 2 steps, check yes
Step Temp Atoms Density TotEng PotEng KinEng E_coul E_vdwl E_long E_bond E_angle E_dihed Enthalpy Press
10000   293.822526     1518     1.024798 -6340.495952 -7231.214185   890.718233 11816.439571  1125.926817 -20173.627261     0.046685     0.000003     0.000000 -5736.149134  2682.511933
Loop time of 42.0502 on 27 procs for 10000 steps with 1518 atoms

unfix    eqmd
unfix    eqions

group   solvent type 1 2
1500 atoms in group solvent
group   water   type 1 2
1500 atoms in group water
group   ions    type 3 4
18 atoms in group ions
group   wall    type 5 6 7
0 atoms in group wall
group   flying  type 8 9 10 11
2 atoms in group flying
group   eq_run  union solvent ions flying
1518 atoms in group eq_run

######################################################################
pair_style   lj/cut/coul/long 9.000000 9.000000
kspace_style pppm 0.0001

# LJ JC_SPCE (neq? False)
# real particles
pair_coeff  1 1     0.155354    3.169   9.0   # O O
pair_coeff  3 3     0.352644    2.1595  9.0   # Na Na
pair_coeff  4 4     0.0127851   4.8305  9.0   # Cl Cl
# flying particles
pair_coeff  8 8     0.155354    3.169   9.0   # O O
pair_coeff  10 10   0.352644    2.1595  9.0   # Na Na
pair_coeff  11 11   0.0127851   4.8305  9.0   # Cl Cl
# wall particles: not exist now
pair_coeff  * 5 0 0 9.0
pair_coeff  * 6 0 0 9.0
pair_coeff  * 7 0 0 9.0
# hydrogens
pair_coeff  * 2 0 0 9.0 # hydrogen
pair_coeff  * 9 0 0 9.0 # flying hydrogen

# intramolecular force field
bond_coeff  1   100000   1.0
angle_coeff 1   100000   109.470000

pair_modify  tail no shift yes mix arithmetic # LB mixing rule
neigh_modify delay 4 every 1 check yes page 500000 one 50000
######################################################################
# dealing with ideal flying particles: force field=JC_SPCE

# Non-interacting flying molecule (trial deletion)
# real particles
pair_coeff  1 1     0.155354    3.169   9.0   # O O
pair_coeff  3 3     0.352644    2.1595   9.0   # Na Na
pair_coeff  4 4     0.0127851   4.8305   9.0   # Cl Cl
# flying particles
pair_coeff  * 8  0 0 9.0    # non-interacting
pair_coeff  * 10 0 0 9.0    # non-interacting
pair_coeff  * 11 0 0 9.0    # non-interacting
# wall particles: not exist now
pair_coeff  * 5 0 0 9.0
pair_coeff  * 6 0 0 9.0
pair_coeff  * 7 0 0 9.0
# hydrogens
pair_coeff  * 2 0 0 9.0     # hydrogen
pair_coeff  * 9 0 0 9.0     # flying hydrogen

# intramolecular force field
bond_coeff  1   100000   1.0
angle_coeff 1   100000   109.470000

# flying water or ions
set type 8  charge 0.           # non-interacting
Setting atom values ...
  0 settings made for charge
set type 9  charge 0.           # non-interacting
Setting atom values ...
  0 settings made for charge
set type 10 charge 0.           # non-interacting
Setting atom values ...
  1 settings made for charge
set type 11 charge 0.           # non-interacting
Setting atom values ...
  1 settings made for charge

run 0 post no # making flying moelcule non-interacting
PPPM initialization ...
  G vector (1/distance) = 0.2975635
  grid = 15 15 15
  stencil order = 5
  estimated absolute RMS force accuracy = 0.027538317
  estimated relative force accuracy = 8.2930825e-05
  3d grid and FFT values/proc = 1728 150
  update every 1 steps, delay 4 steps, check yes
Step Temp Atoms Density TotEng PotEng KinEng E_coul E_vdwl E_long E_bond E_angle E_dihed Enthalpy Press
20000   196.350803     1518     1.024798 -6111.894728 -6999.771233   887.876504 22711.484186  1179.294805 -30890.596912     0.046685     0.000003     0.000000 -1312.528612 21302.928225
Loop time of 2.99489e-06 on 27 procs for 0 steps with 1518 atoms

# done post_propagate after NEMD
# selected salt 1503/1518
#The center of bimodal dist. on a positive side=2.000000
set type 10 type 3
Setting atom values ...
  1 settings made for type
set type 11 type 4
Setting atom values ...
  1 settings made for type
run 0 post no # lj type change (reject_delete)
PPPM initialization ...
  G vector (1/distance) = 0.2975635
  grid = 15 15 15
  stencil order = 5
  estimated absolute RMS force accuracy = 0.027538317
  estimated relative force accuracy = 8.2930825e-05
  3d grid and FFT values/proc = 1728 150
Step Temp Atoms Density TotEng PotEng KinEng E_coul E_vdwl E_long E_bond E_angle E_dihed Enthalpy Press
20000   196.350803     1518     1.024798 -5891.161406 -6779.037911   887.876504 22711.484186  1400.028127 -30890.596912     0.046685     0.000003     0.000000  -147.642321 25493.736441
Loop time of 2.91422e-06 on 27 procs for 0 steps with 1518 atoms

set atom 1503 charge 1.000000
Setting atom values ...
  1 settings made for charge
set atom 1518 charge -1.000000
Setting atom values ...
  1 settings made for charge
run 0 post no # charge return (reject_delete)
PPPM initialization ...
  G vector (1/distance) = 0.2975635
  grid = 15 15 15
  stencil order = 5
  estimated absolute RMS force accuracy = 0.027637587
  estimated relative force accuracy = 8.3229771e-05
  3d grid and FFT values/proc = 1728 150
Step Temp Atoms Density TotEng PotEng KinEng E_coul E_vdwl E_long E_bond E_angle E_dihed Enthalpy Press
20000   196.350803     1518     1.024798 -5941.047958 -6828.924462   887.876504 22709.747661  1400.028127 -30938.746938     0.046685     0.000003     0.000000  -214.252026 25419.507440
Loop time of 2.96159e-06 on 27 procs for 0 steps with 1518 atoms

run 0 post no # return_position back to old
PPPM initialization ...
  G vector (1/distance) = 0.2975635
  grid = 15 15 15
  stencil order = 5
  estimated absolute RMS force accuracy = 0.027637587
  estimated relative force accuracy = 8.3229771e-05
  3d grid and FFT values/proc = 1728 150
Loop time of 2.91833e-06 on 27 procs for 0 steps with 1518 atoms
