group   solvent type 1 2
1500 atoms in group solvent
group   water   type 1 2
1500 atoms in group water
group   ions    type 3 4
18 atoms in group ions
group   wall    type 5 6 7
0 atoms in group wall
group   flying  type 8 9 10 11
0 atoms in group flying
group   eq_run  union solvent ions flying
1518 atoms in group eq_run

######################################################################
pair_style   lj/cut/coul/long 9.000000 9.000000
kspace_style pppm 0.0001

# LJ JC_SPCE (neq? False)
# real particles
pair_coeff  1 1     0.155354    3.169   9.0   # O O
pair_coeff  3 3     0.352644    2.1595  9.0   # Na Na
pair_coeff  4 4     0.0127851   4.8305  9.0   # Cl Cl
# flying particles
pair_coeff  8 8     0.155354    3.169   9.0   # O O
pair_coeff  10 10   0.352644    2.1595  9.0   # Na Na
pair_coeff  11 11   0.0127851   4.8305  9.0   # Cl Cl
# wall particles: not exist now
pair_coeff  * 5 0 0 9.0
pair_coeff  * 6 0 0 9.0
pair_coeff  * 7 0 0 9.0
# hydrogens
pair_coeff  * 2 0 0 9.0 # hydrogen
pair_coeff  * 9 0 0 9.0 # flying hydrogen

# intramolecular force field
bond_coeff  1   100000   1.0
angle_coeff 1   100000   109.470000

pair_modify  tail no shift yes mix arithmetic # LB mixing rule
neigh_modify delay 4 every 1 check yes page 500000 one 50000
######################################################################
fix fOHs        all    shake 0.00001 40 50000 b 1 a 1
       0 = # of size 2 clusters
       0 = # of size 3 clusters
       0 = # of size 4 clusters
     500 = # of frozen angles
  find clusters CPU = 0.001 seconds
timestep 2.000000
thermo 2000
fix  eqmd   eq_run npt temp 298.150000 298.150000 200.000000 iso 1.000000 1.000000 2000.000000
run 2000 # (neq? False) MD run
PPPM initialization ...
  G vector (1/distance) = 0.29727121
  grid = 15 15 15
  stencil order = 5
  estimated absolute RMS force accuracy = 0.027898273
  estimated relative force accuracy = 8.4014819e-05
  3d grid and FFT values/proc = 1728 150
SHAKE stats (type/ave/delta/count) on step 0
Step Temp Atoms Density TotEng PotEng KinEng E_coul E_vdwl E_long E_bond E_angle E_dihed Enthalpy Press
0   293.124253     1518     1.015221 -6233.216715 -7121.818146   888.601431 22682.242139  1174.558896 -30978.619180     0.000000     0.000000     0.000000 -6201.820400   138.056267
Loop time of 3.15948 on 27 procs for 2000 steps with 1518 atoms

unfix fOHs
unfix    eqmd

group   solvent type 1 2
1500 atoms in group solvent
group   water   type 1 2
1500 atoms in group water
group   ions    type 3 4
18 atoms in group ions
group   wall    type 5 6 7
0 atoms in group wall
group   flying  type 8 9 10 11
0 atoms in group flying
group   eq_run  union solvent ions flying
1518 atoms in group eq_run

######################################################################
pair_style   lj/cut/coul/long 9.000000 9.000000
kspace_style pppm 0.0001

# LJ JC_SPCE (neq? False)
# real particles
pair_coeff  1 1     0.155354    3.169   9.0   # O O
pair_coeff  3 3     0.352644    2.1595  9.0   # Na Na
pair_coeff  4 4     0.0127851   4.8305  9.0   # Cl Cl
# flying particles
pair_coeff  8 8     0.155354    3.169   9.0   # O O
pair_coeff  10 10   0.352644    2.1595  9.0   # Na Na
pair_coeff  11 11   0.0127851   4.8305  9.0   # Cl Cl
# wall particles: not exist now
pair_coeff  * 5 0 0 9.0
pair_coeff  * 6 0 0 9.0
pair_coeff  * 7 0 0 9.0
# hydrogens
pair_coeff  * 2 0 0 9.0 # hydrogen
pair_coeff  * 9 0 0 9.0 # flying hydrogen

# intramolecular force field
bond_coeff  1   100000   1.0
angle_coeff 1   100000   109.470000

pair_modify  tail no shift yes mix arithmetic # LB mixing rule
neigh_modify delay 4 every 1 check yes page 500000 one 50000
######################################################################
# shake is off; should be a dummy run
timestep 2.000000
thermo 2000
fix  eqmd   eq_run npt temp 298.150000 298.150000 200.000000 iso 1.000000 1.000000 2000.000000
run 0 # (neq? False) MD run
PPPM initialization ...
  G vector (1/distance) = 0.29754325
  grid = 15 15 15
  stencil order = 5
  estimated absolute RMS force accuracy = 0.027655581
  estimated relative force accuracy = 8.328396e-05
  3d grid and FFT values/proc = 1728 150
Step Temp Atoms Density TotEng PotEng KinEng E_coul E_vdwl E_long E_bond E_angle E_dihed Enthalpy Press
2000   203.542103     1518     1.024132 -6386.052543 -7306.447308   920.394766 22489.201997  1211.885762 -31007.537072     0.001995     0.000010     0.000000   216.668290 29288.401211
Loop time of 2.96011e-06 on 27 procs for 0 steps with 1518 atoms

unfix    eqmd
#chosen_cation deletion_move 8.851114 -11.449231 5.589264 # select_molecule
#chosen_anion deletion_move 7.760047 7.177993 8.259095 # select_molecule
# selected_velocity_salt 1502 cation vel -0.004636 -0.000571 -0.002211
# selected_velocity_salt 1509 anion vel 0.002537 0.001692 -0.002239
group widom_test id  1502 1509 # select_molecule
2 atoms in group widom_test
set atom 1502 type 10
Setting atom values ...
  1 settings made for type
set atom 1509 type 11
Setting atom values ...
  1 settings made for type
run 0 post no # done selecting a flying molecule
PPPM initialization ...
  G vector (1/distance) = 0.29754325
  grid = 15 15 15
  stencil order = 5
  estimated absolute RMS force accuracy = 0.027655581
  estimated relative force accuracy = 8.328396e-05
  3d grid and FFT values/proc = 1728 150
Step Temp Atoms Density TotEng PotEng KinEng E_coul E_vdwl E_long E_bond E_angle E_dihed Enthalpy Press
2000   203.542103     1518     1.024132 -6411.818848 -7332.213614   920.394766 22489.201997  1186.119456 -31007.537072     0.001995     0.000010     0.000000    55.396155 28687.323380
Loop time of 2.70693e-06 on 27 procs for 0 steps with 1518 atoms

group noneq_run_rigid    intersect   all         water               # select_salt no selection
1500 atoms in group noneq_run_rigid
group noneq_run_pre      subtract    all         noneq_run_rigid     # select_salt no selection
18 atoms in group noneq_run_pre
group noneq_run          subtract    noneq_run_pre   widom_test      # select_salt no selection
16 atoms in group noneq_run
group noneq_run_pre      delete
run 0 post no # mom rev random number
PPPM initialization ...
  G vector (1/distance) = 0.29754325
  grid = 15 15 15
  stencil order = 5
  estimated absolute RMS force accuracy = 0.027655581
  estimated relative force accuracy = 8.328396e-05
  3d grid and FFT values/proc = 1728 150
Step Temp Atoms Density TotEng PotEng KinEng E_coul E_vdwl E_long E_bond E_angle E_dihed Enthalpy Press
2000   203.542103     1518     1.024132 -6411.818848 -7332.213614   920.394766 22489.201997  1186.119456 -31007.537072     0.001995     0.000010     0.000000    55.396155 28687.323380
Loop time of 3.24293e-06 on 27 procs for 0 steps with 1518 atoms

######################################################################
pair_style   lj/cut/coul/long/neq 14.000000 14.000000 2000 10000 3.000000 7 0 0 1.000000 3.000000 11 1.000000
kspace_style pppm/neq 0.0001 2000 10000 3.000000 7 0 0 1.000000 3.000000 11 1.000000

# LJ JC_SPCE (neq? True)
# real particles
pair_coeff  1 1     0.155354    3.169   14.0   # O O
pair_coeff  3 3     0.352644    2.1595  14.0   # Na Na
pair_coeff  4 4     0.0127851   4.8305  14.0   # Cl Cl
# flying particles
pair_coeff  8 8     0.155354    3.169   14.0   # O O
pair_coeff  10 10   0.352644    2.1595  14.0   # Na Na
pair_coeff  11 11   0.0127851   4.8305  14.0   # Cl Cl
# wall particles: not exist now
pair_coeff  * 5 0 0 14.0
pair_coeff  * 6 0 0 14.0
pair_coeff  * 7 0 0 14.0
# hydrogens
pair_coeff  * 2 0 0 14.0 # hydrogen
pair_coeff  * 9 0 0 14.0 # flying hydrogen

# intramolecular force field
bond_coeff  1   100000   1.0
angle_coeff 1   100000   109.470000

pair_modify  tail no shift yes mix arithmetic # LB mixing rule
neigh_modify delay 2 every 1 check yes page 500000 one 50000
######################################################################
timestep 4.000000
fix  eqmd  noneq_run_rigid     rigid/nve molecule  # rigid water
  500 rigid bodies with 1500 atoms
fix  eqions  noneq_run           nve                 # nve for non-rigid
run 10000 # (neq? True) MD run
4D PPPM initialization ...
  G vector (1/distance) = 0.19344888
  grid = 10 10 10
  stencil order = 5
  estimated absolute RMS force accuracy = 0.018824522
  estimated relative force accuracy = 5.668949e-05
  3d grid and FFT values/proc = 729 80
  update every 1 steps, delay 2 steps, check yes
Step Temp Atoms Density TotEng PotEng KinEng E_coul E_vdwl E_long E_bond E_angle E_dihed Enthalpy Press
2000   303.609397     1518     1.024132 -6431.097357 -7351.484332   920.386974 11655.783295  1166.649412 -20173.919044     0.001995     0.000010     0.000000 -6350.036032   359.572465
Loop time of 42.6887 on 27 procs for 10000 steps with 1518 atoms

unfix    eqmd
unfix    eqions

group   solvent type 1 2
1500 atoms in group solvent
group   water   type 1 2
1500 atoms in group water
group   ions    type 3 4
18 atoms in group ions
group   wall    type 5 6 7
0 atoms in group wall
group   flying  type 8 9 10 11
2 atoms in group flying
group   eq_run  union solvent ions flying
1518 atoms in group eq_run

######################################################################
pair_style   lj/cut/coul/long 9.000000 9.000000
kspace_style pppm 0.0001

# LJ JC_SPCE (neq? False)
# real particles
pair_coeff  1 1     0.155354    3.169   9.0   # O O
pair_coeff  3 3     0.352644    2.1595  9.0   # Na Na
pair_coeff  4 4     0.0127851   4.8305  9.0   # Cl Cl
# flying particles
pair_coeff  8 8     0.155354    3.169   9.0   # O O
pair_coeff  10 10   0.352644    2.1595  9.0   # Na Na
pair_coeff  11 11   0.0127851   4.8305  9.0   # Cl Cl
# wall particles: not exist now
pair_coeff  * 5 0 0 9.0
pair_coeff  * 6 0 0 9.0
pair_coeff  * 7 0 0 9.0
# hydrogens
pair_coeff  * 2 0 0 9.0 # hydrogen
pair_coeff  * 9 0 0 9.0 # flying hydrogen

# intramolecular force field
bond_coeff  1   100000   1.0
angle_coeff 1   100000   109.470000

pair_modify  tail no shift yes mix arithmetic # LB mixing rule
neigh_modify delay 4 every 1 check yes page 500000 one 50000
######################################################################
# dealing with ideal flying particles: force field=JC_SPCE

# Non-interacting flying molecule (trial deletion)
# real particles
pair_coeff  1 1     0.155354    3.169   9.0   # O O
pair_coeff  3 3     0.352644    2.1595   9.0   # Na Na
pair_coeff  4 4     0.0127851   4.8305   9.0   # Cl Cl
# flying particles
pair_coeff  * 8  0 0 9.0    # non-interacting
pair_coeff  * 10 0 0 9.0    # non-interacting
pair_coeff  * 11 0 0 9.0    # non-interacting
# wall particles: not exist now
pair_coeff  * 5 0 0 9.0
pair_coeff  * 6 0 0 9.0
pair_coeff  * 7 0 0 9.0
# hydrogens
pair_coeff  * 2 0 0 9.0     # hydrogen
pair_coeff  * 9 0 0 9.0     # flying hydrogen

# intramolecular force field
bond_coeff  1   100000   1.0
angle_coeff 1   100000   109.470000

# flying water or ions
set type 8  charge 0.           # non-interacting
Setting atom values ...
  0 settings made for charge
set type 9  charge 0.           # non-interacting
Setting atom values ...
  0 settings made for charge
set type 10 charge 0.           # non-interacting
Setting atom values ...
  1 settings made for charge
set type 11 charge 0.           # non-interacting
Setting atom values ...
  1 settings made for charge

run 0 post no # making flying moelcule non-interacting
PPPM initialization ...
  G vector (1/distance) = 0.29754325
  grid = 15 15 15
  stencil order = 5
  estimated absolute RMS force accuracy = 0.027556247
  estimated relative force accuracy = 8.2984819e-05
  3d grid and FFT values/proc = 1728 150
  update every 1 steps, delay 4 steps, check yes
Step Temp Atoms Density TotEng PotEng KinEng E_coul E_vdwl E_long E_bond E_angle E_dihed Enthalpy Press
12000   189.030090     1518     1.024132 -6193.278214 -7048.051270   854.773056 22629.731780  1206.722424 -30884.507479     0.001995     0.000010     0.000000   425.936957 29361.566925
Loop time of 5.95989e-06 on 27 procs for 0 steps with 1518 atoms

# done post_propagate after NEMD
# selected salt 1502/1509
#The center of bimodal dist. on a positive side=2.000000
set type 10 type 3
Setting atom values ...
  1 settings made for type
set type 11 type 4
Setting atom values ...
  1 settings made for type
run 0 post no # lj type change (reject_delete)
PPPM initialization ...
  G vector (1/distance) = 0.29754325
  grid = 15 15 15
  stencil order = 5
  estimated absolute RMS force accuracy = 0.027556247
  estimated relative force accuracy = 8.2984819e-05
  3d grid and FFT values/proc = 1728 150
Step Temp Atoms Density TotEng PotEng KinEng E_coul E_vdwl E_long E_bond E_angle E_dihed Enthalpy Press
12000   189.030090     1518     1.024132 -1550.926830 -2405.699886   854.773056 22629.731780  5849.073807 -30884.507479     0.001995     0.000010     0.000000 23819.929165 112540.243372
Loop time of 2.74615e-06 on 27 procs for 0 steps with 1518 atoms

set atom 1502 charge 1.000000
Setting atom values ...
  1 settings made for charge
set atom 1509 charge -1.000000
Setting atom values ...
  1 settings made for charge
run 0 post no # charge return (reject_delete)
PPPM initialization ...
  G vector (1/distance) = 0.29754325
  grid = 15 15 15
  stencil order = 5
  estimated absolute RMS force accuracy = 0.027655581
  estimated relative force accuracy = 8.328396e-05
  3d grid and FFT values/proc = 1728 150
Step Temp Atoms Density TotEng PotEng KinEng E_coul E_vdwl E_long E_bond E_angle E_dihed Enthalpy Press
12000   189.030090     1518     1.024132 -1632.832055 -2487.605110   854.773056 22611.977657  5849.073807 -30948.658580     0.001995     0.000010     0.000000 23710.663695 112418.878576
Loop time of 4.76733e-06 on 27 procs for 0 steps with 1518 atoms

run 0 post no # return_position back to old
PPPM initialization ...
  G vector (1/distance) = 0.29754325
  grid = 15 15 15
  stencil order = 5
  estimated absolute RMS force accuracy = 0.027655581
  estimated relative force accuracy = 8.328396e-05
  3d grid and FFT values/proc = 1728 150
Step Temp Atoms Density TotEng PotEng KinEng E_coul E_vdwl E_long E_bond E_angle E_dihed Enthalpy Press
12000   203.542103     1518     1.024132 -6386.052514 -7306.447280   920.394766 22489.201997  1211.885790 -31007.537072     0.001995     0.000010     0.000000   216.668571 29288.402333
Loop time of 4.46452e-06 on 27 procs for 0 steps with 1518 atoms

group widom_test         delete
group noneq_run          delete
group noneq_run_rigid    delete
reset_timestep 2000

group   solvent delete
group   water   delete
group   ions    delete
group   wall    delete
group   flying  delete
group   eq_run  delete

group   solvent type 1 2
1500 atoms in group solvent
group   water   type 1 2
1500 atoms in group water
group   ions    type 3 4
18 atoms in group ions
group   wall    type 5 6 7
0 atoms in group wall
group   flying  type 8 9 10 11
0 atoms in group flying
group   eq_run  union solvent ions flying
1518 atoms in group eq_run

######################################################################
pair_style   lj/cut/coul/long 9.000000 9.000000
kspace_style pppm 0.0001

# LJ JC_SPCE (neq? False)
# real particles
pair_coeff  1 1     0.155354    3.169   9.0   # O O
pair_coeff  3 3     0.352644    2.1595  9.0   # Na Na
pair_coeff  4 4     0.0127851   4.8305  9.0   # Cl Cl
# flying particles
pair_coeff  8 8     0.155354    3.169   9.0   # O O
pair_coeff  10 10   0.352644    2.1595  9.0   # Na Na
pair_coeff  11 11   0.0127851   4.8305  9.0   # Cl Cl
# wall particles: not exist now
pair_coeff  * 5 0 0 9.0
pair_coeff  * 6 0 0 9.0
pair_coeff  * 7 0 0 9.0
# hydrogens
pair_coeff  * 2 0 0 9.0 # hydrogen
pair_coeff  * 9 0 0 9.0 # flying hydrogen

# intramolecular force field
bond_coeff  1   100000   1.0
angle_coeff 1   100000   109.470000

pair_modify  tail no shift yes mix arithmetic # LB mixing rule
neigh_modify delay 4 every 1 check yes page 500000 one 50000
######################################################################
# shake is off; should be a dummy run
timestep 2.000000
thermo 2000
fix  eqmd   eq_run npt temp 298.150000 298.150000 200.000000 iso 1.000000 1.000000 2000.000000
run 0 # (neq? False) MD run
PPPM initialization ...
  G vector (1/distance) = 0.29754325
  grid = 15 15 15
  stencil order = 5
  estimated absolute RMS force accuracy = 0.027655581
  estimated relative force accuracy = 8.328396e-05
  3d grid and FFT values/proc = 1728 150
Step Temp Atoms Density TotEng PotEng KinEng E_coul E_vdwl E_long E_bond E_angle E_dihed Enthalpy Press
2000   203.542103     1518     1.024132 -6386.052514 -7306.447280   920.394766 22489.201997  1211.885790 -31007.537072     0.001995     0.000010     0.000000   216.668571 29288.402333
Loop time of 4.37463e-06 on 27 procs for 0 steps with 1518 atoms

unfix    eqmd
#chosen_cation deletion_move 3.693374 -8.633749 -9.834493 # select_molecule
#chosen_anion deletion_move 6.094888 -8.267301 -8.521860 # select_molecule
# selected_velocity_salt 1507 cation vel -0.005794 0.004533 -0.001865
# selected_velocity_salt 1513 anion vel -0.005604 -0.003139 -0.001682
group widom_test id  1507 1513 # select_molecule
2 atoms in group widom_test
set atom 1507 type 10
Setting atom values ...
  1 settings made for type
set atom 1513 type 11
Setting atom values ...
  1 settings made for type
run 0 post no # done selecting a flying molecule
PPPM initialization ...
  G vector (1/distance) = 0.29754325
  grid = 15 15 15
  stencil order = 5
  estimated absolute RMS force accuracy = 0.027655581
  estimated relative force accuracy = 8.328396e-05
  3d grid and FFT values/proc = 1728 150
Step Temp Atoms Density TotEng PotEng KinEng E_coul E_vdwl E_long E_bond E_angle E_dihed Enthalpy Press
2000   203.542103     1518     1.024132 -6406.764991 -7327.159757   920.394766 22489.201997  1191.173313 -31007.537072     0.001995     0.000010     0.000000    83.723767 28790.561286
Loop time of 4.21089e-06 on 27 procs for 0 steps with 1518 atoms

group noneq_run_rigid    intersect   all         water               # select_salt no selection
1500 atoms in group noneq_run_rigid
group noneq_run_pre      subtract    all         noneq_run_rigid     # select_salt no selection
18 atoms in group noneq_run_pre
group noneq_run          subtract    noneq_run_pre   widom_test      # select_salt no selection
16 atoms in group noneq_run
group noneq_run_pre      delete
run 0 post no # mom rev random number
PPPM initialization ...
  G vector (1/distance) = 0.29754325
  grid = 15 15 15
  stencil order = 5
  estimated absolute RMS force accuracy = 0.027655581
  estimated relative force accuracy = 8.328396e-05
  3d grid and FFT values/proc = 1728 150
Step Temp Atoms Density TotEng PotEng KinEng E_coul E_vdwl E_long E_bond E_angle E_dihed Enthalpy Press
2000   203.542103     1518     1.024132 -6406.764991 -7327.159757   920.394766 22489.201997  1191.173313 -31007.537072     0.001995     0.000010     0.000000    83.723767 28790.561286
Loop time of 4.19048e-06 on 27 procs for 0 steps with 1518 atoms

######################################################################
pair_style   lj/cut/coul/long/neq 14.000000 14.000000 2000 10000 3.000000 7 0 0 1.000000 3.000000 11 1.000000
kspace_style pppm/neq 0.0001 2000 10000 3.000000 7 0 0 1.000000 3.000000 11 1.000000

# LJ JC_SPCE (neq? True)
# real particles
pair_coeff  1 1     0.155354    3.169   14.0   # O O
pair_coeff  3 3     0.352644    2.1595  14.0   # Na Na
pair_coeff  4 4     0.0127851   4.8305  14.0   # Cl Cl
# flying particles
pair_coeff  8 8     0.155354    3.169   14.0   # O O
pair_coeff  10 10   0.352644    2.1595  14.0   # Na Na
pair_coeff  11 11   0.0127851   4.8305  14.0   # Cl Cl
# wall particles: not exist now
pair_coeff  * 5 0 0 14.0
pair_coeff  * 6 0 0 14.0
pair_coeff  * 7 0 0 14.0
# hydrogens
pair_coeff  * 2 0 0 14.0 # hydrogen
pair_coeff  * 9 0 0 14.0 # flying hydrogen

# intramolecular force field
bond_coeff  1   100000   1.0
angle_coeff 1   100000   109.470000

pair_modify  tail no shift yes mix arithmetic # LB mixing rule
neigh_modify delay 2 every 1 check yes page 500000 one 50000
######################################################################
timestep 4.000000
fix  eqmd  noneq_run_rigid     rigid/nve molecule  # rigid water
  500 rigid bodies with 1500 atoms
fix  eqions  noneq_run           nve                 # nve for non-rigid
run 10000 # (neq? True) MD run
4D PPPM initialization ...
  G vector (1/distance) = 0.19344888
  grid = 10 10 10
  stencil order = 5
  estimated absolute RMS force accuracy = 0.018824522
  estimated relative force accuracy = 5.668949e-05
  3d grid and FFT values/proc = 729 80
  update every 1 steps, delay 2 steps, check yes
Step Temp Atoms Density TotEng PotEng KinEng E_coul E_vdwl E_long E_bond E_angle E_dihed Enthalpy Press
2000   303.609397     1518     1.024132 -6431.097358 -7351.484332   920.386974 11655.783295  1166.649412 -20173.919045     0.001995     0.000010     0.000000 -6350.036053   359.572378
Loop time of 42.6577 on 27 procs for 10000 steps with 1518 atoms

unfix    eqmd
unfix    eqions

group   solvent type 1 2
1500 atoms in group solvent
group   water   type 1 2
1500 atoms in group water
group   ions    type 3 4
18 atoms in group ions
group   wall    type 5 6 7
0 atoms in group wall
group   flying  type 8 9 10 11
2 atoms in group flying
group   eq_run  union solvent ions flying
1518 atoms in group eq_run

######################################################################
pair_style   lj/cut/coul/long 9.000000 9.000000
kspace_style pppm 0.0001

# LJ JC_SPCE (neq? False)
# real particles
pair_coeff  1 1     0.155354    3.169   9.0   # O O
pair_coeff  3 3     0.352644    2.1595  9.0   # Na Na
pair_coeff  4 4     0.0127851   4.8305  9.0   # Cl Cl
# flying particles
pair_coeff  8 8     0.155354    3.169   9.0   # O O
pair_coeff  10 10   0.352644    2.1595  9.0   # Na Na
pair_coeff  11 11   0.0127851   4.8305  9.0   # Cl Cl
# wall particles: not exist now
pair_coeff  * 5 0 0 9.0
pair_coeff  * 6 0 0 9.0
pair_coeff  * 7 0 0 9.0
# hydrogens
pair_coeff  * 2 0 0 9.0 # hydrogen
pair_coeff  * 9 0 0 9.0 # flying hydrogen

# intramolecular force field
bond_coeff  1   100000   1.0
angle_coeff 1   100000   109.470000

pair_modify  tail no shift yes mix arithmetic # LB mixing rule
neigh_modify delay 4 every 1 check yes page 500000 one 50000
######################################################################
# dealing with ideal flying particles: force field=JC_SPCE

# Non-interacting flying molecule (trial deletion)
# real particles
pair_coeff  1 1     0.155354    3.169   9.0   # O O
pair_coeff  3 3     0.352644    2.1595   9.0   # Na Na
pair_coeff  4 4     0.0127851   4.8305   9.0   # Cl Cl
# flying particles
pair_coeff  * 8  0 0 9.0    # non-interacting
pair_coeff  * 10 0 0 9.0    # non-interacting
pair_coeff  * 11 0 0 9.0    # non-interacting
# wall particles: not exist now
pair_coeff  * 5 0 0 9.0
pair_coeff  * 6 0 0 9.0
pair_coeff  * 7 0 0 9.0
# hydrogens
pair_coeff  * 2 0 0 9.0     # hydrogen
pair_coeff  * 9 0 0 9.0     # flying hydrogen

# intramolecular force field
bond_coeff  1   100000   1.0
angle_coeff 1   100000   109.470000

# flying water or ions
set type 8  charge 0.           # non-interacting
Setting atom values ...
  0 settings made for charge
set type 9  charge 0.           # non-interacting
Setting atom values ...
  0 settings made for charge
set type 10 charge 0.           # non-interacting
Setting atom values ...
  1 settings made for charge
set type 11 charge 0.           # non-interacting
Setting atom values ...
  1 settings made for charge

run 0 post no # making flying moelcule non-interacting
PPPM initialization ...
  G vector (1/distance) = 0.29754325
  grid = 15 15 15
  stencil order = 5
  estimated absolute RMS force accuracy = 0.027556247
  estimated relative force accuracy = 8.2984819e-05
  3d grid and FFT values/proc = 1728 150
  update every 1 steps, delay 4 steps, check yes
Step Temp Atoms Density TotEng PotEng KinEng E_coul E_vdwl E_long E_bond E_angle E_dihed Enthalpy Press
12000   196.124724     1518     1.024132 -6199.200475 -7086.054677   886.854203 22654.583417  1149.068129 -30889.708229     0.001995     0.000010     0.000000   192.567894 28352.656606
Loop time of 3.13963e-06 on 27 procs for 0 steps with 1518 atoms

# done post_propagate after NEMD
# selected salt 1507/1513
#The center of bimodal dist. on a positive side=2.000000
set type 10 type 3
Setting atom values ...
  1 settings made for type
set type 11 type 4
Setting atom values ...
  1 settings made for type
run 0 post no # lj type change (reject_delete)
PPPM initialization ...
  G vector (1/distance) = 0.29754325
  grid = 15 15 15
  stencil order = 5
  estimated absolute RMS force accuracy = 0.027556247
  estimated relative force accuracy = 8.2984819e-05
  3d grid and FFT values/proc = 1728 150
Step Temp Atoms Density TotEng PotEng KinEng E_coul E_vdwl E_long E_bond E_angle E_dihed Enthalpy Press
12000   196.124724     1518     1.024132 -5936.186859 -6823.041061   886.854203 22654.583417  1412.081745 -30889.708229     0.001995     0.000010     0.000000  1566.891775 33282.215453
Loop time of 3.06307e-06 on 27 procs for 0 steps with 1518 atoms

set atom 1507 charge 1.000000
Setting atom values ...
  1 settings made for charge
set atom 1513 charge -1.000000
Setting atom values ...
  1 settings made for charge
run 0 post no # charge return (reject_delete)
PPPM initialization ...
  G vector (1/distance) = 0.29754325
  grid = 15 15 15
  stencil order = 5
  estimated absolute RMS force accuracy = 0.027655581
  estimated relative force accuracy = 8.328396e-05
  3d grid and FFT values/proc = 1728 150
Step Temp Atoms Density TotEng PotEng KinEng E_coul E_vdwl E_long E_bond E_angle E_dihed Enthalpy Press
12000   196.124724     1518     1.024132 -6055.061516 -6941.915718   886.854203 22637.680129  1412.081745 -30991.679597     0.001995     0.000010     0.000000  1408.505592 33106.949914
Loop time of 2.65626e-06 on 27 procs for 0 steps with 1518 atoms

run 0 post no # return_position back to old
PPPM initialization ...
  G vector (1/distance) = 0.29754325
  grid = 15 15 15
  stencil order = 5
  estimated absolute RMS force accuracy = 0.027655581
  estimated relative force accuracy = 8.328396e-05
  3d grid and FFT values/proc = 1728 150
Step Temp Atoms Density TotEng PotEng KinEng E_coul E_vdwl E_long E_bond E_angle E_dihed Enthalpy Press
12000   203.542103     1518     1.024132 -6386.052512 -7306.447277   920.394766 22489.201997  1211.885790 -31007.537069     0.001995     0.000010     0.000000   216.668573 29288.402328
Loop time of 7.157e-06 on 27 procs for 0 steps with 1518 atoms

group widom_test         delete
group noneq_run          delete
group noneq_run_rigid    delete
reset_timestep 2000

group   solvent delete
group   water   delete
group   ions    delete
group   wall    delete
group   flying  delete
group   eq_run  delete

group   solvent type 1 2
1500 atoms in group solvent
group   water   type 1 2
1500 atoms in group water
group   ions    type 3 4
18 atoms in group ions
group   wall    type 5 6 7
0 atoms in group wall
group   flying  type 8 9 10 11
0 atoms in group flying
group   eq_run  union solvent ions flying
1518 atoms in group eq_run

######################################################################
pair_style   lj/cut/coul/long 9.000000 9.000000
kspace_style pppm 0.0001

# LJ JC_SPCE (neq? False)
# real particles
pair_coeff  1 1     0.155354    3.169   9.0   # O O
pair_coeff  3 3     0.352644    2.1595  9.0   # Na Na
pair_coeff  4 4     0.0127851   4.8305  9.0   # Cl Cl
# flying particles
pair_coeff  8 8     0.155354    3.169   9.0   # O O
pair_coeff  10 10   0.352644    2.1595  9.0   # Na Na
pair_coeff  11 11   0.0127851   4.8305  9.0   # Cl Cl
# wall particles: not exist now
pair_coeff  * 5 0 0 9.0
pair_coeff  * 6 0 0 9.0
pair_coeff  * 7 0 0 9.0
# hydrogens
pair_coeff  * 2 0 0 9.0 # hydrogen
pair_coeff  * 9 0 0 9.0 # flying hydrogen

# intramolecular force field
bond_coeff  1   100000   1.0
angle_coeff 1   100000   109.470000

pair_modify  tail no shift yes mix arithmetic # LB mixing rule
neigh_modify delay 4 every 1 check yes page 500000 one 50000
######################################################################
# shake is off; should be a dummy run
timestep 2.000000
thermo 2000
fix  eqmd   eq_run npt temp 298.150000 298.150000 200.000000 iso 1.000000 1.000000 2000.000000
run 0 # (neq? False) MD run
PPPM initialization ...
  G vector (1/distance) = 0.29754325
  grid = 15 15 15
  stencil order = 5
  estimated absolute RMS force accuracy = 0.027655581
  estimated relative force accuracy = 8.328396e-05
  3d grid and FFT values/proc = 1728 150
Step Temp Atoms Density TotEng PotEng KinEng E_coul E_vdwl E_long E_bond E_angle E_dihed Enthalpy Press
2000   203.542103     1518     1.024132 -6386.052512 -7306.447277   920.394766 22489.201997  1211.885790 -31007.537069     0.001995     0.000010     0.000000   216.668573 29288.402328
Loop time of 3.93804e-06 on 27 procs for 0 steps with 1518 atoms

unfix    eqmd
#chosen_cation deletion_move 4.329923 -5.671293 -2.224995 # select_molecule
#chosen_anion deletion_move 1.827195 -2.999416 -0.300431 # select_molecule
# selected_velocity_salt 1504 cation vel -0.003908 0.001819 0.003503
# selected_velocity_salt 1511 anion vel 0.002132 0.001505 0.001589
group widom_test id  1504 1511 # select_molecule
2 atoms in group widom_test
set atom 1504 type 10
Setting atom values ...
  1 settings made for type
set atom 1511 type 11
Setting atom values ...
  1 settings made for type
run 0 post no # done selecting a flying molecule
PPPM initialization ...
  G vector (1/distance) = 0.29754325
  grid = 15 15 15
  stencil order = 5
  estimated absolute RMS force accuracy = 0.027655581
  estimated relative force accuracy = 8.328396e-05
  3d grid and FFT values/proc = 1728 150
Step Temp Atoms Density TotEng PotEng KinEng E_coul E_vdwl E_long E_bond E_angle E_dihed Enthalpy Press
2000   203.542103     1518     1.024132 -6415.366751 -7335.761516   920.394766 22489.201997  1182.571551 -31007.537069     0.001995     0.000010     0.000000    33.666144 28606.671040
Loop time of 3.58533e-06 on 27 procs for 0 steps with 1518 atoms

group noneq_run_rigid    intersect   all         water               # select_salt no selection
1500 atoms in group noneq_run_rigid
group noneq_run_pre      subtract    all         noneq_run_rigid     # select_salt no selection
18 atoms in group noneq_run_pre
group noneq_run          subtract    noneq_run_pre   widom_test      # select_salt no selection
16 atoms in group noneq_run
group noneq_run_pre      delete
run 0 post no # mom rev random number
PPPM initialization ...
  G vector (1/distance) = 0.29754325
  grid = 15 15 15
  stencil order = 5
  estimated absolute RMS force accuracy = 0.027655581
  estimated relative force accuracy = 8.328396e-05
  3d grid and FFT values/proc = 1728 150
Step Temp Atoms Density TotEng PotEng KinEng E_coul E_vdwl E_long E_bond E_angle E_dihed Enthalpy Press
2000   203.542103     1518     1.024132 -6415.366751 -7335.761516   920.394766 22489.201997  1182.571551 -31007.537069     0.001995     0.000010     0.000000    33.666144 28606.671040
Loop time of 3.41252e-06 on 27 procs for 0 steps with 1518 atoms

######################################################################
pair_style   lj/cut/coul/long/neq 14.000000 14.000000 2000 10000 3.000000 7 0 0 1.000000 3.000000 11 1.000000
kspace_style pppm/neq 0.0001 2000 10000 3.000000 7 0 0 1.000000 3.000000 11 1.000000

# LJ JC_SPCE (neq? True)
# real particles
pair_coeff  1 1     0.155354    3.169   14.0   # O O
pair_coeff  3 3     0.352644    2.1595  14.0   # Na Na
pair_coeff  4 4     0.0127851   4.8305  14.0   # Cl Cl
# flying particles
pair_coeff  8 8     0.155354    3.169   14.0   # O O
pair_coeff  10 10   0.352644    2.1595  14.0   # Na Na
pair_coeff  11 11   0.0127851   4.8305  14.0   # Cl Cl
# wall particles: not exist now
pair_coeff  * 5 0 0 14.0
pair_coeff  * 6 0 0 14.0
pair_coeff  * 7 0 0 14.0
# hydrogens
pair_coeff  * 2 0 0 14.0 # hydrogen
pair_coeff  * 9 0 0 14.0 # flying hydrogen

# intramolecular force field
bond_coeff  1   100000   1.0
angle_coeff 1   100000   109.470000

pair_modify  tail no shift yes mix arithmetic # LB mixing rule
neigh_modify delay 2 every 1 check yes page 500000 one 50000
######################################################################
timestep 4.000000
fix  eqmd  noneq_run_rigid     rigid/nve molecule  # rigid water
  500 rigid bodies with 1500 atoms
fix  eqions  noneq_run           nve                 # nve for non-rigid
run 10000 # (neq? True) MD run
4D PPPM initialization ...
  G vector (1/distance) = 0.19344888
  grid = 10 10 10
  stencil order = 5
  estimated absolute RMS force accuracy = 0.018824522
  estimated relative force accuracy = 5.668949e-05
  3d grid and FFT values/proc = 729 80
  update every 1 steps, delay 2 steps, check yes
Step Temp Atoms Density TotEng PotEng KinEng E_coul E_vdwl E_long E_bond E_angle E_dihed Enthalpy Press
2000   303.609397     1518     1.024132 -6431.097354 -7351.484329   920.386974 11655.783295  1166.649412 -20173.919041     0.001995     0.000010     0.000000 -6350.036047   359.572388
Loop time of 42.7598 on 27 procs for 10000 steps with 1518 atoms

unfix    eqmd
unfix    eqions

group   solvent type 1 2
1500 atoms in group solvent
group   water   type 1 2
1500 atoms in group water
group   ions    type 3 4
18 atoms in group ions
group   wall    type 5 6 7
0 atoms in group wall
group   flying  type 8 9 10 11
2 atoms in group flying
group   eq_run  union solvent ions flying
1518 atoms in group eq_run

######################################################################
pair_style   lj/cut/coul/long 9.000000 9.000000
kspace_style pppm 0.0001

# LJ JC_SPCE (neq? False)
# real particles
pair_coeff  1 1     0.155354    3.169   9.0   # O O
pair_coeff  3 3     0.352644    2.1595  9.0   # Na Na
pair_coeff  4 4     0.0127851   4.8305  9.0   # Cl Cl
# flying particles
pair_coeff  8 8     0.155354    3.169   9.0   # O O
pair_coeff  10 10   0.352644    2.1595  9.0   # Na Na
pair_coeff  11 11   0.0127851   4.8305  9.0   # Cl Cl
# wall particles: not exist now
pair_coeff  * 5 0 0 9.0
pair_coeff  * 6 0 0 9.0
pair_coeff  * 7 0 0 9.0
# hydrogens
pair_coeff  * 2 0 0 9.0 # hydrogen
pair_coeff  * 9 0 0 9.0 # flying hydrogen

# intramolecular force field
bond_coeff  1   100000   1.0
angle_coeff 1   100000   109.470000

pair_modify  tail no shift yes mix arithmetic # LB mixing rule
neigh_modify delay 4 every 1 check yes page 500000 one 50000
######################################################################
# dealing with ideal flying particles: force field=JC_SPCE

# Non-interacting flying molecule (trial deletion)
# real particles
pair_coeff  1 1     0.155354    3.169   9.0   # O O
pair_coeff  3 3     0.352644    2.1595   9.0   # Na Na
pair_coeff  4 4     0.0127851   4.8305   9.0   # Cl Cl
# flying particles
pair_coeff  * 8  0 0 9.0    # non-interacting
pair_coeff  * 10 0 0 9.0    # non-interacting
pair_coeff  * 11 0 0 9.0    # non-interacting
# wall particles: not exist now
pair_coeff  * 5 0 0 9.0
pair_coeff  * 6 0 0 9.0
pair_coeff  * 7 0 0 9.0
# hydrogens
pair_coeff  * 2 0 0 9.0     # hydrogen
pair_coeff  * 9 0 0 9.0     # flying hydrogen

# intramolecular force field
bond_coeff  1   100000   1.0
angle_coeff 1   100000   109.470000

# flying water or ions
set type 8  charge 0.           # non-interacting
Setting atom values ...
  0 settings made for charge
set type 9  charge 0.           # non-interacting
Setting atom values ...
  0 settings made for charge
set type 10 charge 0.           # non-interacting
Setting atom values ...
  1 settings made for charge
set type 11 charge 0.           # non-interacting
Setting atom values ...
  1 settings made for charge

run 0 post no # making flying moelcule non-interacting
PPPM initialization ...
  G vector (1/distance) = 0.29754325
  grid = 15 15 15
  stencil order = 5
  estimated absolute RMS force accuracy = 0.027556247
  estimated relative force accuracy = 8.2984819e-05
  3d grid and FFT values/proc = 1728 150
  update every 1 steps, delay 4 steps, check yes
Step Temp Atoms Density TotEng PotEng KinEng E_coul E_vdwl E_long E_bond E_angle E_dihed Enthalpy Press
12000   192.155357     1518     1.024132 -6184.359839 -7053.265005   868.905167 22587.029031  1236.530790 -30876.826832     0.001995     0.000010     0.000000   570.390410 29962.774492
Loop time of 2.90781e-06 on 27 procs for 0 steps with 1518 atoms

# done post_propagate after NEMD
# selected salt 1504/1511
#The center of bimodal dist. on a positive side=2.000000
set type 10 type 3
Setting atom values ...
  1 settings made for type
set type 11 type 4
Setting atom values ...
  1 settings made for type
run 0 post no # lj type change (reject_delete)
PPPM initialization ...
  G vector (1/distance) = 0.29754325
  grid = 15 15 15
  stencil order = 5
  estimated absolute RMS force accuracy = 0.027556247
  estimated relative force accuracy = 8.2984819e-05
  3d grid and FFT values/proc = 1728 150
Step Temp Atoms Density TotEng PotEng KinEng E_coul E_vdwl E_long E_bond E_angle E_dihed Enthalpy Press
12000   192.155357     1518     1.024132 -5204.804454 -6073.709620   868.905167 22587.029031  2216.086175 -30876.826832     0.001995     0.000010     0.000000  5558.778078 47745.184391
Loop time of 2.71396e-06 on 27 procs for 0 steps with 1518 atoms

set atom 1504 charge 1.000000
Setting atom values ...
  1 settings made for charge
set atom 1511 charge -1.000000
Setting atom values ...
  1 settings made for charge
run 0 post no # charge return (reject_delete)
PPPM initialization ...
  G vector (1/distance) = 0.29754325
  grid = 15 15 15
  stencil order = 5
  estimated absolute RMS force accuracy = 0.027655581
  estimated relative force accuracy = 8.328396e-05
  3d grid and FFT values/proc = 1728 150
Step Temp Atoms Density TotEng PotEng KinEng E_coul E_vdwl E_long E_bond E_angle E_dihed Enthalpy Press
12000   192.155357     1518     1.024132 -5250.430993 -6119.336159   868.905167 22613.391918  2216.086175 -30948.816258     0.001995     0.000010     0.000000  5497.729711 47676.776126
Loop time of 6.50207e-06 on 27 procs for 0 steps with 1518 atoms

run 0 post no # return_position back to old
PPPM initialization ...
  G vector (1/distance) = 0.29754325
  grid = 15 15 15
  stencil order = 5
  estimated absolute RMS force accuracy = 0.027655581
  estimated relative force accuracy = 8.328396e-05
  3d grid and FFT values/proc = 1728 150
Step Temp Atoms Density TotEng PotEng KinEng E_coul E_vdwl E_long E_bond E_angle E_dihed Enthalpy Press
12000   203.542103     1518     1.024132 -6386.052517 -7306.447282   920.394766 22489.201997  1211.885790 -31007.537075     0.001995     0.000010     0.000000   216.668569 29288.402333
Loop time of 4.92411e-06 on 27 procs for 0 steps with 1518 atoms

group widom_test         delete
group noneq_run          delete
group noneq_run_rigid    delete
reset_timestep 2000

group   solvent delete
group   water   delete
group   ions    delete
group   wall    delete
group   flying  delete
group   eq_run  delete

group   solvent type 1 2
1500 atoms in group solvent
group   water   type 1 2
1500 atoms in group water
group   ions    type 3 4
18 atoms in group ions
group   wall    type 5 6 7
0 atoms in group wall
group   flying  type 8 9 10 11
0 atoms in group flying
group   eq_run  union solvent ions flying
1518 atoms in group eq_run

######################################################################
pair_style   lj/cut/coul/long 9.000000 9.000000
kspace_style pppm 0.0001

# LJ JC_SPCE (neq? False)
# real particles
pair_coeff  1 1     0.155354    3.169   9.0   # O O
pair_coeff  3 3     0.352644    2.1595  9.0   # Na Na
pair_coeff  4 4     0.0127851   4.8305  9.0   # Cl Cl
# flying particles
pair_coeff  8 8     0.155354    3.169   9.0   # O O
pair_coeff  10 10   0.352644    2.1595  9.0   # Na Na
pair_coeff  11 11   0.0127851   4.8305  9.0   # Cl Cl
# wall particles: not exist now
pair_coeff  * 5 0 0 9.0
pair_coeff  * 6 0 0 9.0
pair_coeff  * 7 0 0 9.0
# hydrogens
pair_coeff  * 2 0 0 9.0 # hydrogen
pair_coeff  * 9 0 0 9.0 # flying hydrogen

# intramolecular force field
bond_coeff  1   100000   1.0
angle_coeff 1   100000   109.470000

pair_modify  tail no shift yes mix arithmetic # LB mixing rule
neigh_modify delay 4 every 1 check yes page 500000 one 50000
######################################################################
# shake is off; should be a dummy run
timestep 2.000000
thermo 2000
fix  eqmd   eq_run npt temp 298.150000 298.150000 200.000000 iso 1.000000 1.000000 2000.000000
run 0 # (neq? False) MD run
PPPM initialization ...
  G vector (1/distance) = 0.29754325
  grid = 15 15 15
  stencil order = 5
  estimated absolute RMS force accuracy = 0.027655581
  estimated relative force accuracy = 8.328396e-05
  3d grid and FFT values/proc = 1728 150
Step Temp Atoms Density TotEng PotEng KinEng E_coul E_vdwl E_long E_bond E_angle E_dihed Enthalpy Press
2000   203.542103     1518     1.024132 -6386.052517 -7306.447282   920.394766 22489.201997  1211.885790 -31007.537075     0.001995     0.000010     0.000000   216.668569 29288.402333
Loop time of 3.11381e-06 on 27 procs for 0 steps with 1518 atoms

unfix    eqmd
#chosen_cation deletion_move 8.851114 -11.449231 5.589264 # select_molecule
#chosen_anion deletion_move 7.760047 7.177993 8.259095 # select_molecule
# selected_velocity_salt 1502 cation vel -0.004636 -0.000571 -0.002211
# selected_velocity_salt 1509 anion vel 0.002537 0.001692 -0.002239
group widom_test id  1502 1509 # select_molecule
2 atoms in group widom_test
set atom 1502 type 10
Setting atom values ...
  1 settings made for type
set atom 1509 type 11
Setting atom values ...
  1 settings made for type
run 0 post no # done selecting a flying molecule
PPPM initialization ...
  G vector (1/distance) = 0.29754325
  grid = 15 15 15
  stencil order = 5
  estimated absolute RMS force accuracy = 0.027655581
  estimated relative force accuracy = 8.328396e-05
  3d grid and FFT values/proc = 1728 150
Step Temp Atoms Density TotEng PotEng KinEng E_coul E_vdwl E_long E_bond E_angle E_dihed Enthalpy Press
2000   203.542103     1518     1.024132 -6411.818827 -7332.213592   920.394766 22489.201997  1186.119480 -31007.537075     0.001995     0.000010     0.000000    55.396397 28687.324359
Loop time of 2.63526e-06 on 27 procs for 0 steps with 1518 atoms

group noneq_run_rigid    intersect   all         water               # select_salt no selection
1500 atoms in group noneq_run_rigid
group noneq_run_pre      subtract    all         noneq_run_rigid     # select_salt no selection
18 atoms in group noneq_run_pre
group noneq_run          subtract    noneq_run_pre   widom_test      # select_salt no selection
16 atoms in group noneq_run
group noneq_run_pre      delete
run 0 post no # mom rev random number
PPPM initialization ...
  G vector (1/distance) = 0.29754325
  grid = 15 15 15
  stencil order = 5
  estimated absolute RMS force accuracy = 0.027655581
  estimated relative force accuracy = 8.328396e-05
  3d grid and FFT values/proc = 1728 150
Step Temp Atoms Density TotEng PotEng KinEng E_coul E_vdwl E_long E_bond E_angle E_dihed Enthalpy Press
2000   203.542103     1518     1.024132 -6411.818827 -7332.213592   920.394766 22489.201997  1186.119480 -31007.537075     0.001995     0.000010     0.000000    55.396397 28687.324359
Loop time of 2.79981e-06 on 27 procs for 0 steps with 1518 atoms

######################################################################
pair_style   lj/cut/coul/long/neq 14.000000 14.000000 2000 10000 3.000000 7 0 0 1.000000 3.000000 11 1.000000
kspace_style pppm/neq 0.0001 2000 10000 3.000000 7 0 0 1.000000 3.000000 11 1.000000

# LJ JC_SPCE (neq? True)
# real particles
pair_coeff  1 1     0.155354    3.169   14.0   # O O
pair_coeff  3 3     0.352644    2.1595  14.0   # Na Na
pair_coeff  4 4     0.0127851   4.8305  14.0   # Cl Cl
# flying particles
pair_coeff  8 8     0.155354    3.169   14.0   # O O
pair_coeff  10 10   0.352644    2.1595  14.0   # Na Na
pair_coeff  11 11   0.0127851   4.8305  14.0   # Cl Cl
# wall particles: not exist now
pair_coeff  * 5 0 0 14.0
pair_coeff  * 6 0 0 14.0
pair_coeff  * 7 0 0 14.0
# hydrogens
pair_coeff  * 2 0 0 14.0 # hydrogen
pair_coeff  * 9 0 0 14.0 # flying hydrogen

# intramolecular force field
bond_coeff  1   100000   1.0
angle_coeff 1   100000   109.470000

pair_modify  tail no shift yes mix arithmetic # LB mixing rule
neigh_modify delay 2 every 1 check yes page 500000 one 50000
######################################################################
timestep 4.000000
fix  eqmd  noneq_run_rigid     rigid/nve molecule  # rigid water
  500 rigid bodies with 1500 atoms
fix  eqions  noneq_run           nve                 # nve for non-rigid
run 10000 # (neq? True) MD run
4D PPPM initialization ...
  G vector (1/distance) = 0.19344888
  grid = 10 10 10
  stencil order = 5
  estimated absolute RMS force accuracy = 0.018824522
  estimated relative force accuracy = 5.668949e-05
  3d grid and FFT values/proc = 729 80
  update every 1 steps, delay 2 steps, check yes
Step Temp Atoms Density TotEng PotEng KinEng E_coul E_vdwl E_long E_bond E_angle E_dihed Enthalpy Press
2000   303.609397     1518     1.024132 -6431.097357 -7351.484331   920.386974 11655.783295  1166.649412 -20173.919043     0.001995     0.000010     0.000000 -6350.036030   359.572471
Loop time of 42.7651 on 27 procs for 10000 steps with 1518 atoms

unfix    eqmd
unfix    eqions

group   solvent type 1 2
1500 atoms in group solvent
group   water   type 1 2
1500 atoms in group water
group   ions    type 3 4
18 atoms in group ions
group   wall    type 5 6 7
0 atoms in group wall
group   flying  type 8 9 10 11
2 atoms in group flying
group   eq_run  union solvent ions flying
1518 atoms in group eq_run

######################################################################
pair_style   lj/cut/coul/long 9.000000 9.000000
kspace_style pppm 0.0001

# LJ JC_SPCE (neq? False)
# real particles
pair_coeff  1 1     0.155354    3.169   9.0   # O O
pair_coeff  3 3     0.352644    2.1595  9.0   # Na Na
pair_coeff  4 4     0.0127851   4.8305  9.0   # Cl Cl
# flying particles
pair_coeff  8 8     0.155354    3.169   9.0   # O O
pair_coeff  10 10   0.352644    2.1595  9.0   # Na Na
pair_coeff  11 11   0.0127851   4.8305  9.0   # Cl Cl
# wall particles: not exist now
pair_coeff  * 5 0 0 9.0
pair_coeff  * 6 0 0 9.0
pair_coeff  * 7 0 0 9.0
# hydrogens
pair_coeff  * 2 0 0 9.0 # hydrogen
pair_coeff  * 9 0 0 9.0 # flying hydrogen

# intramolecular force field
bond_coeff  1   100000   1.0
angle_coeff 1   100000   109.470000

pair_modify  tail no shift yes mix arithmetic # LB mixing rule
neigh_modify delay 4 every 1 check yes page 500000 one 50000
######################################################################
# dealing with ideal flying particles: force field=JC_SPCE

# Non-interacting flying molecule (trial deletion)
# real particles
pair_coeff  1 1     0.155354    3.169   9.0   # O O
pair_coeff  3 3     0.352644    2.1595   9.0   # Na Na
pair_coeff  4 4     0.0127851   4.8305   9.0   # Cl Cl
# flying particles
pair_coeff  * 8  0 0 9.0    # non-interacting
pair_coeff  * 10 0 0 9.0    # non-interacting
pair_coeff  * 11 0 0 9.0    # non-interacting
# wall particles: not exist now
pair_coeff  * 5 0 0 9.0
pair_coeff  * 6 0 0 9.0
pair_coeff  * 7 0 0 9.0
# hydrogens
pair_coeff  * 2 0 0 9.0     # hydrogen
pair_coeff  * 9 0 0 9.0     # flying hydrogen

# intramolecular force field
bond_coeff  1   100000   1.0
angle_coeff 1   100000   109.470000

# flying water or ions
set type 8  charge 0.           # non-interacting
Setting atom values ...
  0 settings made for charge
set type 9  charge 0.           # non-interacting
Setting atom values ...
  0 settings made for charge
set type 10 charge 0.           # non-interacting
Setting atom values ...
  1 settings made for charge
set type 11 charge 0.           # non-interacting
Setting atom values ...
  1 settings made for charge

run 0 post no # making flying moelcule non-interacting
PPPM initialization ...
  G vector (1/distance) = 0.29754325
  grid = 15 15 15
  stencil order = 5
  estimated absolute RMS force accuracy = 0.027556247
  estimated relative force accuracy = 8.2984819e-05
  3d grid and FFT values/proc = 1728 150
  update every 1 steps, delay 4 steps, check yes
Step Temp Atoms Density TotEng PotEng KinEng E_coul E_vdwl E_long E_bond E_angle E_dihed Enthalpy Press
12000   188.867857     1518     1.024132 -6196.516011 -7050.555466   854.039456 22597.979345  1242.322883 -30890.859699     0.001995     0.000010     0.000000   567.664230 30004.604127
Loop time of 4.99289e-06 on 27 procs for 0 steps with 1518 atoms

# done post_propagate after NEMD
# selected salt 1502/1509
#The center of bimodal dist. on a positive side=2.000000
set type 10 type 3
Setting atom values ...
  1 settings made for type
set type 11 type 4
Setting atom values ...
  1 settings made for type
run 0 post no # lj type change (reject_delete)
PPPM initialization ...
  G vector (1/distance) = 0.29754325
  grid = 15 15 15
  stencil order = 5
  estimated absolute RMS force accuracy = 0.027556247
  estimated relative force accuracy = 8.2984819e-05
  3d grid and FFT values/proc = 1728 150
Step Temp Atoms Density TotEng PotEng KinEng E_coul E_vdwl E_long E_bond E_angle E_dihed Enthalpy Press
12000   188.867857     1518     1.024132 -4224.845447 -5078.884903   854.039456 22597.979345  3213.993446 -30890.859699     0.001995     0.000010     0.000000 10561.566528 65589.683003
Loop time of 6.18207e-06 on 27 procs for 0 steps with 1518 atoms

set atom 1502 charge 1.000000
Setting atom values ...
  1 settings made for charge
set atom 1509 charge -1.000000
Setting atom values ...
  1 settings made for charge
run 0 post no # charge return (reject_delete)
PPPM initialization ...
  G vector (1/distance) = 0.29754325
  grid = 15 15 15
  stencil order = 5
  estimated absolute RMS force accuracy = 0.027655581
  estimated relative force accuracy = 8.328396e-05
  3d grid and FFT values/proc = 1728 150
Step Temp Atoms Density TotEng PotEng KinEng E_coul E_vdwl E_long E_bond E_angle E_dihed Enthalpy Press
12000   188.867857     1518     1.024132 -4268.711428 -5122.750884   854.039456 22609.044078  3213.993446 -30945.790414     0.001995     0.000010     0.000000 10502.923619 65524.135391
Loop time of 3.37193e-06 on 27 procs for 0 steps with 1518 atoms

run 0 post no # return_position back to old
PPPM initialization ...
  G vector (1/distance) = 0.29754325
  grid = 15 15 15
  stencil order = 5
  estimated absolute RMS force accuracy = 0.027655581
  estimated relative force accuracy = 8.328396e-05
  3d grid and FFT values/proc = 1728 150
Step Temp Atoms Density TotEng PotEng KinEng E_coul E_vdwl E_long E_bond E_angle E_dihed Enthalpy Press
12000   203.542103     1518     1.024132 -6386.052510 -7306.447275   920.394766 22489.201997  1211.885790 -31007.537068     0.001995     0.000010     0.000000   216.668575 29288.402328
Loop time of 3.82326e-06 on 27 procs for 0 steps with 1518 atoms

group widom_test         delete
group noneq_run          delete
group noneq_run_rigid    delete
reset_timestep 2000

group   solvent delete
group   water   delete
group   ions    delete
group   wall    delete
group   flying  delete
group   eq_run  delete

group   solvent type 1 2
1500 atoms in group solvent
group   water   type 1 2
1500 atoms in group water
group   ions    type 3 4
18 atoms in group ions
group   wall    type 5 6 7
0 atoms in group wall
group   flying  type 8 9 10 11
0 atoms in group flying
group   eq_run  union solvent ions flying
1518 atoms in group eq_run

######################################################################
pair_style   lj/cut/coul/long 9.000000 9.000000
kspace_style pppm 0.0001

# LJ JC_SPCE (neq? False)
# real particles
pair_coeff  1 1     0.155354    3.169   9.0   # O O
pair_coeff  3 3     0.352644    2.1595  9.0   # Na Na
pair_coeff  4 4     0.0127851   4.8305  9.0   # Cl Cl
# flying particles
pair_coeff  8 8     0.155354    3.169   9.0   # O O
pair_coeff  10 10   0.352644    2.1595  9.0   # Na Na
pair_coeff  11 11   0.0127851   4.8305  9.0   # Cl Cl
# wall particles: not exist now
pair_coeff  * 5 0 0 9.0
pair_coeff  * 6 0 0 9.0
pair_coeff  * 7 0 0 9.0
# hydrogens
pair_coeff  * 2 0 0 9.0 # hydrogen
pair_coeff  * 9 0 0 9.0 # flying hydrogen

# intramolecular force field
bond_coeff  1   100000   1.0
angle_coeff 1   100000   109.470000

pair_modify  tail no shift yes mix arithmetic # LB mixing rule
neigh_modify delay 4 every 1 check yes page 500000 one 50000
######################################################################
# shake is off; should be a dummy run
timestep 2.000000
thermo 2000
fix  eqmd   eq_run npt temp 298.150000 298.150000 200.000000 iso 1.000000 1.000000 2000.000000
run 0 # (neq? False) MD run
PPPM initialization ...
  G vector (1/distance) = 0.29754325
  grid = 15 15 15
  stencil order = 5
  estimated absolute RMS force accuracy = 0.027655581
  estimated relative force accuracy = 8.328396e-05
  3d grid and FFT values/proc = 1728 150
Step Temp Atoms Density TotEng PotEng KinEng E_coul E_vdwl E_long E_bond E_angle E_dihed Enthalpy Press
2000   203.542103     1518     1.024132 -6386.052510 -7306.447275   920.394766 22489.201997  1211.885790 -31007.537068     0.001995     0.000010     0.000000   216.668575 29288.402328
Loop time of 4.21807e-06 on 27 procs for 0 steps with 1518 atoms

unfix    eqmd
#chosen_cation deletion_move 11.604802 0.713035 8.478085 # select_molecule
#chosen_anion deletion_move -11.256276 -2.151069 5.005024 # select_molecule
# selected_velocity_salt 1501 cation vel 0.002318 0.003266 -0.002172
# selected_velocity_salt 1512 anion vel 0.002535 0.005174 0.004186
group widom_test id  1501 1512 # select_molecule
2 atoms in group widom_test
set atom 1501 type 10
Setting atom values ...
  1 settings made for type
set atom 1512 type 11
Setting atom values ...
  1 settings made for type
run 0 post no # done selecting a flying molecule
PPPM initialization ...
  G vector (1/distance) = 0.29754325
  grid = 15 15 15
  stencil order = 5
  estimated absolute RMS force accuracy = 0.027655581
  estimated relative force accuracy = 8.328396e-05
  3d grid and FFT values/proc = 1728 150
Step Temp Atoms Density TotEng PotEng KinEng E_coul E_vdwl E_long E_bond E_angle E_dihed Enthalpy Press
2000   203.542103     1518     1.024132 -6403.564474 -7323.959240   920.394766 22489.201997  1194.373826 -31007.537068     0.001995     0.000010     0.000000    98.532379 28842.052564
Loop time of 4.74956e-06 on 27 procs for 0 steps with 1518 atoms

group noneq_run_rigid    intersect   all         water               # select_salt no selection
1500 atoms in group noneq_run_rigid
group noneq_run_pre      subtract    all         noneq_run_rigid     # select_salt no selection
18 atoms in group noneq_run_pre
group noneq_run          subtract    noneq_run_pre   widom_test      # select_salt no selection
16 atoms in group noneq_run
group noneq_run_pre      delete
run 0 post no # mom rev random number
PPPM initialization ...
  G vector (1/distance) = 0.29754325
  grid = 15 15 15
  stencil order = 5
  estimated absolute RMS force accuracy = 0.027655581
  estimated relative force accuracy = 8.328396e-05
  3d grid and FFT values/proc = 1728 150
Step Temp Atoms Density TotEng PotEng KinEng E_coul E_vdwl E_long E_bond E_angle E_dihed Enthalpy Press
2000   203.542103     1518     1.024132 -6403.564474 -7323.959240   920.394766 22489.201997  1194.373826 -31007.537068     0.001995     0.000010     0.000000    98.532379 28842.052564
Loop time of 3.65407e-06 on 27 procs for 0 steps with 1518 atoms

######################################################################
pair_style   lj/cut/coul/long/neq 14.000000 14.000000 2000 10000 3.000000 7 0 0 1.000000 3.000000 11 1.000000
kspace_style pppm/neq 0.0001 2000 10000 3.000000 7 0 0 1.000000 3.000000 11 1.000000

# LJ JC_SPCE (neq? True)
# real particles
pair_coeff  1 1     0.155354    3.169   14.0   # O O
pair_coeff  3 3     0.352644    2.1595  14.0   # Na Na
pair_coeff  4 4     0.0127851   4.8305  14.0   # Cl Cl
# flying particles
pair_coeff  8 8     0.155354    3.169   14.0   # O O
pair_coeff  10 10   0.352644    2.1595  14.0   # Na Na
pair_coeff  11 11   0.0127851   4.8305  14.0   # Cl Cl
# wall particles: not exist now
pair_coeff  * 5 0 0 14.0
pair_coeff  * 6 0 0 14.0
pair_coeff  * 7 0 0 14.0
# hydrogens
pair_coeff  * 2 0 0 14.0 # hydrogen
pair_coeff  * 9 0 0 14.0 # flying hydrogen

# intramolecular force field
bond_coeff  1   100000   1.0
angle_coeff 1   100000   109.470000

pair_modify  tail no shift yes mix arithmetic # LB mixing rule
neigh_modify delay 2 every 1 check yes page 500000 one 50000
######################################################################
timestep 4.000000
fix  eqmd  noneq_run_rigid     rigid/nve molecule  # rigid water
  500 rigid bodies with 1500 atoms
fix  eqions  noneq_run           nve                 # nve for non-rigid
run 10000 # (neq? True) MD run
4D PPPM initialization ...
  G vector (1/distance) = 0.19344888
  grid = 10 10 10
  stencil order = 5
  estimated absolute RMS force accuracy = 0.018824522
  estimated relative force accuracy = 5.668949e-05
  3d grid and FFT values/proc = 729 80
  update every 1 steps, delay 2 steps, check yes
Step Temp Atoms Density TotEng PotEng KinEng E_coul E_vdwl E_long E_bond E_angle E_dihed Enthalpy Press
2000   303.609397     1518     1.024132 -6431.097357 -7351.484331   920.386974 11655.783295  1166.649412 -20173.919044     0.001995     0.000010     0.000000 -6350.036044   359.572413
Loop time of 42.5484 on 27 procs for 10000 steps with 1518 atoms

unfix    eqmd
unfix    eqions

group   solvent type 1 2
1500 atoms in group solvent
group   water   type 1 2
1500 atoms in group water
group   ions    type 3 4
18 atoms in group ions
group   wall    type 5 6 7
0 atoms in group wall
group   flying  type 8 9 10 11
2 atoms in group flying
group   eq_run  union solvent ions flying
1518 atoms in group eq_run

######################################################################
pair_style   lj/cut/coul/long 9.000000 9.000000
kspace_style pppm 0.0001

# LJ JC_SPCE (neq? False)
# real particles
pair_coeff  1 1     0.155354    3.169   9.0   # O O
pair_coeff  3 3     0.352644    2.1595  9.0   # Na Na
pair_coeff  4 4     0.0127851   4.8305  9.0   # Cl Cl
# flying particles
pair_coeff  8 8     0.155354    3.169   9.0   # O O
pair_coeff  10 10   0.352644    2.1595  9.0   # Na Na
pair_coeff  11 11   0.0127851   4.8305  9.0   # Cl Cl
# wall particles: not exist now
pair_coeff  * 5 0 0 9.0
pair_coeff  * 6 0 0 9.0
pair_coeff  * 7 0 0 9.0
# hydrogens
pair_coeff  * 2 0 0 9.0 # hydrogen
pair_coeff  * 9 0 0 9.0 # flying hydrogen

# intramolecular force field
bond_coeff  1   100000   1.0
angle_coeff 1   100000   109.470000

pair_modify  tail no shift yes mix arithmetic # LB mixing rule
neigh_modify delay 4 every 1 check yes page 500000 one 50000
######################################################################
# dealing with ideal flying particles: force field=JC_SPCE

# Non-interacting flying molecule (trial deletion)
# real particles
pair_coeff  1 1     0.155354    3.169   9.0   # O O
pair_coeff  3 3     0.352644    2.1595   9.0   # Na Na
pair_coeff  4 4     0.0127851   4.8305   9.0   # Cl Cl
# flying particles
pair_coeff  * 8  0 0 9.0    # non-interacting
pair_coeff  * 10 0 0 9.0    # non-interacting
pair_coeff  * 11 0 0 9.0    # non-interacting
# wall particles: not exist now
pair_coeff  * 5 0 0 9.0
pair_coeff  * 6 0 0 9.0
pair_coeff  * 7 0 0 9.0
# hydrogens
pair_coeff  * 2 0 0 9.0     # hydrogen
pair_coeff  * 9 0 0 9.0     # flying hydrogen

# intramolecular force field
bond_coeff  1   100000   1.0
angle_coeff 1   100000   109.470000

# flying water or ions
set type 8  charge 0.           # non-interacting
Setting atom values ...
  0 settings made for charge
set type 9  charge 0.           # non-interacting
Setting atom values ...
  0 settings made for charge
set type 10 charge 0.           # non-interacting
Setting atom values ...
  1 settings made for charge
set type 11 charge 0.           # non-interacting
Setting atom values ...
  1 settings made for charge

run 0 post no # making flying moelcule non-interacting
PPPM initialization ...
  G vector (1/distance) = 0.29754325
  grid = 15 15 15
  stencil order = 5
  estimated absolute RMS force accuracy = 0.027556247
  estimated relative force accuracy = 8.2984819e-05
  3d grid and FFT values/proc = 1728 150
  update every 1 steps, delay 4 steps, check yes
Step Temp Atoms Density TotEng PotEng KinEng E_coul E_vdwl E_long E_bond E_angle E_dihed Enthalpy Press
12000   188.516170     1518     1.024132 -6198.835604 -7051.284770   852.449166 22627.524087  1213.255313 -30892.066175     0.001995     0.000010     0.000000   463.738618 29553.899346
Loop time of 2.82963e-06 on 27 procs for 0 steps with 1518 atoms

# done post_propagate after NEMD
# selected salt 1501/1512
#The center of bimodal dist. on a positive side=2.000000
set type 10 type 3
Setting atom values ...
  1 settings made for type
set type 11 type 4
Setting atom values ...
  1 settings made for type
run 0 post no # lj type change (reject_delete)
PPPM initialization ...
  G vector (1/distance) = 0.29754325
  grid = 15 15 15
  stencil order = 5
  estimated absolute RMS force accuracy = 0.027556247
  estimated relative force accuracy = 8.2984819e-05
  3d grid and FFT values/proc = 1728 150
Step Temp Atoms Density TotEng PotEng KinEng E_coul E_vdwl E_long E_bond E_angle E_dihed Enthalpy Press
12000   188.516170     1518     1.024132  2519.874422  1667.425256   852.449166 22627.524087  9931.965339 -30892.066175     0.001995     0.000010     0.000000 44249.253554 185103.509480
Loop time of 4.36548e-06 on 27 procs for 0 steps with 1518 atoms

set atom 1501 charge 1.000000
Setting atom values ...
  1 settings made for charge
set atom 1512 charge -1.000000
Setting atom values ...
  1 settings made for charge
run 0 post no # charge return (reject_delete)
PPPM initialization ...
  G vector (1/distance) = 0.29754325
  grid = 15 15 15
  stencil order = 5
  estimated absolute RMS force accuracy = 0.027655581
  estimated relative force accuracy = 8.328396e-05
  3d grid and FFT values/proc = 1728 150
Step Temp Atoms Density TotEng PotEng KinEng E_coul E_vdwl E_long E_bond E_angle E_dihed Enthalpy Press
12000   188.516170     1518     1.024132  2447.768582  1595.319416   852.449166 22631.413741  9931.965339 -30968.061670     0.001995     0.000010     0.000000 44153.264755 184997.569266
Loop time of 4.53152e-06 on 27 procs for 0 steps with 1518 atoms

run 0 post no # return_position back to old
PPPM initialization ...
  G vector (1/distance) = 0.29754325
  grid = 15 15 15
  stencil order = 5
  estimated absolute RMS force accuracy = 0.027655581
  estimated relative force accuracy = 8.328396e-05
  3d grid and FFT values/proc = 1728 150
Loop time of 4.23226e-06 on 27 procs for 0 steps with 1518 atoms

group widom_test         delete
group noneq_run          delete
group noneq_run_rigid    delete
reset_timestep 2000

group   solvent delete
group   water   delete
group   ions    delete
group   wall    delete
group   flying  delete
group   eq_run  delete

write_data restart_after_MC_0.data pair ij
System init for write_data ...
PPPM initialization ...
  G vector (1/distance) = 0.29754325
  grid = 15 15 15
  stencil order = 5
  estimated absolute RMS force accuracy = 0.027655581
  estimated relative force accuracy = 8.328396e-05
  3d grid and FFT values/proc = 1728 150
log logfile_hneqMDMC.1
