group   solvent type 1 2
1500 atoms in group solvent
group   water   type 1 2
1500 atoms in group water
group   ions    type 3 4
16 atoms in group ions
group   wall    type 5 6 7
0 atoms in group wall
group   flying  type 8 9 10 11
0 atoms in group flying
group   eq_run  union solvent ions flying
1516 atoms in group eq_run

######################################################################
pair_style   lj/cut/coul/long 9.000000 9.000000
kspace_style pppm 0.0001

# LJ JC_SPCE (neq? False)
# real particles
pair_coeff  1 1     0.155354    3.169   9.0   # O O
pair_coeff  3 3     0.352644    2.1595  9.0   # Na Na
pair_coeff  4 4     0.0127851   4.8305  9.0   # Cl Cl
# flying particles
pair_coeff  8 8     0.155354    3.169   9.0   # O O
pair_coeff  10 10   0.352644    2.1595  9.0   # Na Na
pair_coeff  11 11   0.0127851   4.8305  9.0   # Cl Cl
# wall particles: not exist now
pair_coeff  * 5 0 0 9.0
pair_coeff  * 6 0 0 9.0
pair_coeff  * 7 0 0 9.0
# hydrogens
pair_coeff  * 2 0 0 9.0 # hydrogen
pair_coeff  * 9 0 0 9.0 # flying hydrogen

# intramolecular force field
bond_coeff  1   100000   1.0
angle_coeff 1   100000   109.470000

pair_modify  tail no shift yes mix arithmetic # LB mixing rule
neigh_modify delay 4 every 1 check yes page 500000 one 50000
######################################################################
fix fOHs        all    shake 0.00001 40 50000 b 1 a 1
       0 = # of size 2 clusters
       0 = # of size 3 clusters
       0 = # of size 4 clusters
     500 = # of frozen angles
  find clusters CPU = 0.002 seconds
timestep 2.000000
thermo 2000
fix  eqmd   eq_run npt temp 298.150000 298.150000 200.000000 iso 1.000000 1.000000 2000.000000
run 2000 # (neq? False) MD run
PPPM initialization ...
  G vector (1/distance) = 0.29772187
  grid = 15 15 15
  stencil order = 5
  estimated absolute RMS force accuracy = 0.027416549
  estimated relative force accuracy = 8.2564123e-05
  3d grid and FFT values/proc = 1728 150
SHAKE stats (type/ave/delta/count) on step 8000
Step Temp Atoms Density TotEng PotEng KinEng E_coul E_vdwl E_long E_bond E_angle E_dihed Enthalpy Press
8000   294.708756     1516     1.023715 -6119.593000 -7011.240883   891.647883 22685.955570  1221.501841 -30918.698294     0.000000     0.000000     0.000000 -5998.249222   541.357185
Loop time of 3.11503 on 27 procs for 2000 steps with 1516 atoms

unfix fOHs
unfix    eqmd

group   solvent type 1 2
1500 atoms in group solvent
group   water   type 1 2
1500 atoms in group water
group   ions    type 3 4
16 atoms in group ions
group   wall    type 5 6 7
0 atoms in group wall
group   flying  type 8 9 10 11
0 atoms in group flying
group   eq_run  union solvent ions flying
1516 atoms in group eq_run

######################################################################
pair_style   lj/cut/coul/long 9.000000 9.000000
kspace_style pppm 0.0001

# LJ JC_SPCE (neq? False)
# real particles
pair_coeff  1 1     0.155354    3.169   9.0   # O O
pair_coeff  3 3     0.352644    2.1595  9.0   # Na Na
pair_coeff  4 4     0.0127851   4.8305  9.0   # Cl Cl
# flying particles
pair_coeff  8 8     0.155354    3.169   9.0   # O O
pair_coeff  10 10   0.352644    2.1595  9.0   # Na Na
pair_coeff  11 11   0.0127851   4.8305  9.0   # Cl Cl
# wall particles: not exist now
pair_coeff  * 5 0 0 9.0
pair_coeff  * 6 0 0 9.0
pair_coeff  * 7 0 0 9.0
# hydrogens
pair_coeff  * 2 0 0 9.0 # hydrogen
pair_coeff  * 9 0 0 9.0 # flying hydrogen

# intramolecular force field
bond_coeff  1   100000   1.0
angle_coeff 1   100000   109.470000

pair_modify  tail no shift yes mix arithmetic # LB mixing rule
neigh_modify delay 4 every 1 check yes page 500000 one 50000
######################################################################
# shake is off; should be a dummy run
timestep 2.000000
thermo 2000
fix  eqmd   eq_run npt temp 298.150000 298.150000 200.000000 iso 1.000000 1.000000 2000.000000
run 0 # (neq? False) MD run
PPPM initialization ...
  G vector (1/distance) = 0.29801643
  grid = 15 15 15
  stencil order = 5
  estimated absolute RMS force accuracy = 0.027157966
  estimated relative force accuracy = 8.1785407e-05
  3d grid and FFT values/proc = 1728 150
Step Temp Atoms Density TotEng PotEng KinEng E_coul E_vdwl E_long E_bond E_angle E_dihed Enthalpy Press
10000   198.237605     1516     1.033461 -6123.976915 -7019.203511   895.226596 22727.475903  1193.442177 -30940.146901     0.025307     0.000003     0.000000  1292.763081 33403.693553
Loop time of 2.77656e-06 on 27 procs for 0 steps with 1516 atoms

unfix    eqmd
#The center (2.000000) and alpha (1.000000) of bimodal biasing function
create_atoms 10 single -0.831256 -9.389584 -7.504050
Created 1 atoms
create_atoms 11 single 0.285593 -7.027315 -6.847295
Created 1 atoms
set atom 1518 image 0 0 0
Setting atom values ...
  1 settings made for image
group   widom_test  type    10 11 # insert salt-pair
2 atoms in group widom_test
run 0 post no # temp=0.593298 unit_lj?=False velocity generated
PPPM initialization ...
  G vector (1/distance) = 0.29801643
  grid = 15 15 15
  stencil order = 5
  estimated absolute RMS force accuracy = 0.027140069
  estimated relative force accuracy = 8.1731512e-05
  3d grid and FFT values/proc = 1728 150
Step Temp Atoms Density TotEng PotEng KinEng E_coul E_vdwl E_long E_bond E_angle E_dihed Enthalpy Press
10000   198.274302     1518     1.039835 23543.426176 22646.851823   896.574353 22727.475890 30859.497511 -30940.146888     0.025307     0.000003     0.000000 150037.109039 569705.318102
Loop time of 2.79807e-06 on 27 procs for 0 steps with 1518 atoms

run 0 post no # temp=0.593298 unit_lj?=False velocity generated
PPPM initialization ...
  G vector (1/distance) = 0.29801643
  grid = 15 15 15
  stencil order = 5
  estimated absolute RMS force accuracy = 0.027140069
  estimated relative force accuracy = 8.1731512e-05
  3d grid and FFT values/proc = 1728 150
Step Temp Atoms Density TotEng PotEng KinEng E_coul E_vdwl E_long E_bond E_angle E_dihed Enthalpy Press
10000   198.578066     1518     1.039835 23544.799766 22646.851823   897.947943 22727.475890 30859.497511 -30940.146888     0.025307     0.000003     0.000000 150039.398356 569709.442374
Loop time of 2.695e-06 on 27 procs for 0 steps with 1518 atoms

# generated_velocity_salt 1517 cation vel 0.001436 -0.002852 -0.006234
# generated_velocity_salt 1518 anion vel 0.000547 -0.002511 0.005081
set type 10 charge 1.000000
Setting atom values ...
  1 settings made for charge
set type 11 charge -1.000000
Setting atom values ...
  1 settings made for charge
run 0 post no # insert flying molecule
PPPM initialization ...
  G vector (1/distance) = 0.29801643
  grid = 15 15 15
  stencil order = 5
  estimated absolute RMS force accuracy = 0.027237903
  estimated relative force accuracy = 8.2026135e-05
  3d grid and FFT values/proc = 1728 150
Step Temp Atoms Density TotEng PotEng KinEng E_coul E_vdwl E_long E_bond E_angle E_dihed Enthalpy Press
10000   198.578066     1518     1.039835 23422.963850 22525.015907   897.947943 22701.857068 30859.497511 -31036.363981     0.025307     0.000003     0.000000 149877.003223 569526.770791
Loop time of 2.80922e-06 on 27 procs for 0 steps with 1518 atoms

group noneq_run_rigid    intersect   all         water               # select_salt no selection
1500 atoms in group noneq_run_rigid
group noneq_run_pre      subtract    all         noneq_run_rigid     # select_salt no selection
18 atoms in group noneq_run_pre
group noneq_run          subtract    noneq_run_pre   widom_test      # select_salt no selection
16 atoms in group noneq_run
group noneq_run_pre      delete
run 0 post no # mom rev random number
PPPM initialization ...
  G vector (1/distance) = 0.29801643
  grid = 15 15 15
  stencil order = 5
  estimated absolute RMS force accuracy = 0.027237903
  estimated relative force accuracy = 8.2026135e-05
  3d grid and FFT values/proc = 1728 150
Step Temp Atoms Density TotEng PotEng KinEng E_coul E_vdwl E_long E_bond E_angle E_dihed Enthalpy Press
10000   198.578066     1518     1.039835 23422.963850 22525.015907   897.947943 22701.857068 30859.497511 -31036.363981     0.025307     0.000003     0.000000 149877.003223 569526.770791
Loop time of 2.79944e-06 on 27 procs for 0 steps with 1518 atoms

######################################################################
pair_style   lj/cut/coul/long/neq 14.000000 14.000000 10000 10000 3.000000 7 1 0 1.000000 3.000000 11 1.000000
kspace_style pppm/neq 0.0001 10000 10000 3.000000 7 1 0 1.000000 3.000000 11 1.000000

# LJ JC_SPCE (neq? True)
# real particles
pair_coeff  1 1     0.155354    3.169   14.0   # O O
pair_coeff  3 3     0.352644    2.1595  14.0   # Na Na
pair_coeff  4 4     0.0127851   4.8305  14.0   # Cl Cl
# flying particles
pair_coeff  8 8     0.155354    3.169   14.0   # O O
pair_coeff  10 10   0.352644    2.1595  14.0   # Na Na
pair_coeff  11 11   0.0127851   4.8305  14.0   # Cl Cl
# wall particles: not exist now
pair_coeff  * 5 0 0 14.0
pair_coeff  * 6 0 0 14.0
pair_coeff  * 7 0 0 14.0
# hydrogens
pair_coeff  * 2 0 0 14.0 # hydrogen
pair_coeff  * 9 0 0 14.0 # flying hydrogen

# intramolecular force field
bond_coeff  1   100000   1.0
angle_coeff 1   100000   109.470000

pair_modify  tail no shift yes mix arithmetic # LB mixing rule
neigh_modify delay 2 every 1 check yes page 500000 one 50000
######################################################################
timestep 4.000000
fix  eqmd  noneq_run_rigid     rigid/nve molecule  # rigid water
  500 rigid bodies with 1500 atoms
fix  eqions  noneq_run           nve                 # nve for non-rigid
run 10000 # (neq? True) MD run
4D PPPM initialization ...
  G vector (1/distance) = 0.19374997
  grid = 10 10 10
  stencil order = 5
  estimated absolute RMS force accuracy = 0.018539675
  estimated relative force accuracy = 5.5831682e-05
  3d grid and FFT values/proc = 729 80
  update every 1 steps, delay 2 steps, check yes
Step Temp Atoms Density TotEng PotEng KinEng E_coul E_vdwl E_long E_bond E_angle E_dihed Enthalpy Press
10000   296.204770     1518     1.039835 12960.941843 12063.001876   897.939966 11917.105908  1151.605448 -1005.734791     0.025307     0.000003     0.000000 13087.312783   569.152509
Loop time of 43.27 on 27 procs for 10000 steps with 1518 atoms

unfix    eqmd
unfix    eqions

group   solvent type 1 2
1500 atoms in group solvent
group   water   type 1 2
1500 atoms in group water
group   ions    type 3 4
16 atoms in group ions
group   wall    type 5 6 7
0 atoms in group wall
group   flying  type 8 9 10 11
2 atoms in group flying
group   eq_run  union solvent ions flying
1518 atoms in group eq_run

######################################################################
pair_style   lj/cut/coul/long 9.000000 9.000000
kspace_style pppm 0.0001

# LJ JC_SPCE (neq? False)
# real particles
pair_coeff  1 1     0.155354    3.169   9.0   # O O
pair_coeff  3 3     0.352644    2.1595  9.0   # Na Na
pair_coeff  4 4     0.0127851   4.8305  9.0   # Cl Cl
# flying particles
pair_coeff  8 8     0.155354    3.169   9.0   # O O
pair_coeff  10 10   0.352644    2.1595  9.0   # Na Na
pair_coeff  11 11   0.0127851   4.8305  9.0   # Cl Cl
# wall particles: not exist now
pair_coeff  * 5 0 0 9.0
pair_coeff  * 6 0 0 9.0
pair_coeff  * 7 0 0 9.0
# hydrogens
pair_coeff  * 2 0 0 9.0 # hydrogen
pair_coeff  * 9 0 0 9.0 # flying hydrogen

# intramolecular force field
bond_coeff  1   100000   1.0
angle_coeff 1   100000   109.470000

pair_modify  tail no shift yes mix arithmetic # LB mixing rule
neigh_modify delay 4 every 1 check yes page 500000 one 50000
######################################################################
run 0 post no # update forcefield; return to Eq
PPPM initialization ...
  G vector (1/distance) = 0.29801643
  grid = 15 15 15
  stencil order = 5
  estimated absolute RMS force accuracy = 0.027237903
  estimated relative force accuracy = 8.2026135e-05
  3d grid and FFT values/proc = 1728 150
  update every 1 steps, delay 4 steps, check yes
Step Temp Atoms Density TotEng PotEng KinEng E_coul E_vdwl E_long E_bond E_angle E_dihed Enthalpy Press
20000   195.086019     1518     1.039835 -6293.016233 -7175.173528   882.157295 22679.593088  1198.619235 -31053.411161     0.025307     0.000003     0.000000  1089.866591 33251.206800
Loop time of 2.99344e-06 on 27 procs for 0 steps with 1518 atoms

# done post_propagate after NEMD
# selected salt 1517/1518
#The center of bimodal dist. on a positive side=2.000000
delete_atoms group widom_test compress no bond yes mol yes # reject_insert
Deleted 2 atoms, new total = 1516
Deleted 0 bonds, new total = 1000
Deleted 0 angles, new total = 500
run 0 post no # delete trial-inserted flying molecule
PPPM initialization ...
  G vector (1/distance) = 0.29801643
  grid = 15 15 15
  stencil order = 5
  estimated absolute RMS force accuracy = 0.027157966
  estimated relative force accuracy = 8.1785407e-05
  3d grid and FFT values/proc = 1728 150
Step Temp Atoms Density TotEng PotEng KinEng E_coul E_vdwl E_long E_bond E_angle E_dihed Enthalpy Press
20000   194.740948     1516     1.033461 -6050.436462 -6929.872410   879.435948 22832.615120  1167.989043 -30930.501883     0.025307     0.000003     0.000000  1264.667905 32945.944541
Loop time of 3.05504e-06 on 27 procs for 0 steps with 1516 atoms

run 0 post no # return_position back to old
PPPM initialization ...
  G vector (1/distance) = 0.29801643
  grid = 15 15 15
  stencil order = 5
  estimated absolute RMS force accuracy = 0.027157966
  estimated relative force accuracy = 8.1785407e-05
  3d grid and FFT values/proc = 1728 150
Step Temp Atoms Density TotEng PotEng KinEng E_coul E_vdwl E_long E_bond E_angle E_dihed Enthalpy Press
20000   198.237605     1516     1.033461 -6123.976913 -7019.203509   895.226596 22727.475903  1193.442177 -30940.146899     0.025307     0.000003     0.000000  1292.763085 33403.693560
Loop time of 2.81356e-06 on 27 procs for 0 steps with 1516 atoms

group widom_test         delete
group noneq_run          delete
group noneq_run_rigid    delete
reset_timestep 10000

group   solvent delete
group   water   delete
group   ions    delete
group   wall    delete
group   flying  delete
group   eq_run  delete

group   solvent type 1 2
1500 atoms in group solvent
group   water   type 1 2
1500 atoms in group water
group   ions    type 3 4
16 atoms in group ions
group   wall    type 5 6 7
0 atoms in group wall
group   flying  type 8 9 10 11
0 atoms in group flying
group   eq_run  union solvent ions flying
1516 atoms in group eq_run

######################################################################
pair_style   lj/cut/coul/long 9.000000 9.000000
kspace_style pppm 0.0001

# LJ JC_SPCE (neq? False)
# real particles
pair_coeff  1 1     0.155354    3.169   9.0   # O O
pair_coeff  3 3     0.352644    2.1595  9.0   # Na Na
pair_coeff  4 4     0.0127851   4.8305  9.0   # Cl Cl
# flying particles
pair_coeff  8 8     0.155354    3.169   9.0   # O O
pair_coeff  10 10   0.352644    2.1595  9.0   # Na Na
pair_coeff  11 11   0.0127851   4.8305  9.0   # Cl Cl
# wall particles: not exist now
pair_coeff  * 5 0 0 9.0
pair_coeff  * 6 0 0 9.0
pair_coeff  * 7 0 0 9.0
# hydrogens
pair_coeff  * 2 0 0 9.0 # hydrogen
pair_coeff  * 9 0 0 9.0 # flying hydrogen

# intramolecular force field
bond_coeff  1   100000   1.0
angle_coeff 1   100000   109.470000

pair_modify  tail no shift yes mix arithmetic # LB mixing rule
neigh_modify delay 4 every 1 check yes page 500000 one 50000
######################################################################
# shake is off; should be a dummy run
timestep 2.000000
thermo 2000
fix  eqmd   eq_run npt temp 298.150000 298.150000 200.000000 iso 1.000000 1.000000 2000.000000
run 0 # (neq? False) MD run
PPPM initialization ...
  G vector (1/distance) = 0.29801643
  grid = 15 15 15
  stencil order = 5
  estimated absolute RMS force accuracy = 0.027157966
  estimated relative force accuracy = 8.1785407e-05
  3d grid and FFT values/proc = 1728 150
Step Temp Atoms Density TotEng PotEng KinEng E_coul E_vdwl E_long E_bond E_angle E_dihed Enthalpy Press
10000   198.237605     1516     1.033461 -6123.976913 -7019.203509   895.226596 22727.475903  1193.442177 -30940.146899     0.025307     0.000003     0.000000  1292.763085 33403.693560
Loop time of 2.85285e-06 on 27 procs for 0 steps with 1516 atoms

unfix    eqmd
#The center (2.000000) and alpha (1.000000) of bimodal biasing function
create_atoms 10 single 11.388422 -6.147606 8.127252
Created 1 atoms
create_atoms 11 single 8.833737 -8.235498 5.828999
Created 1 atoms
set atom 1518 image 0 0 0
Setting atom values ...
  1 settings made for image
group   widom_test  type    10 11 # insert salt-pair
2 atoms in group widom_test
run 0 post no # temp=0.593298 unit_lj?=False velocity generated
PPPM initialization ...
  G vector (1/distance) = 0.29801643
  grid = 15 15 15
  stencil order = 5
  estimated absolute RMS force accuracy = 0.027140069
  estimated relative force accuracy = 8.1731512e-05
  3d grid and FFT values/proc = 1728 150
Step Temp Atoms Density TotEng PotEng KinEng E_coul E_vdwl E_long E_bond E_angle E_dihed Enthalpy Press
10000   198.205062     1518     1.039835 156196.229989 155299.968730   896.261259 22727.475890 163512.614416 -30940.146886     0.025307     0.000003     0.000000 813422.450901 2960031.400581
Loop time of 2.80152e-06 on 27 procs for 0 steps with 1518 atoms

run 0 post no # temp=0.593298 unit_lj?=False velocity generated
PPPM initialization ...
  G vector (1/distance) = 0.29801643
  grid = 15 15 15
  stencil order = 5
  estimated absolute RMS force accuracy = 0.027140069
  estimated relative force accuracy = 8.1731512e-05
  3d grid and FFT values/proc = 1728 150
Step Temp Atoms Density TotEng PotEng KinEng E_coul E_vdwl E_long E_bond E_angle E_dihed Enthalpy Press
10000   198.828486     1518     1.039835 156199.049041 155299.968730   899.080312 22727.475890 163512.614416 -30940.146886     0.025307     0.000003     0.000000 813427.149322 2960039.864925
Loop time of 2.80581e-06 on 27 procs for 0 steps with 1518 atoms

# generated_velocity_salt 1517 cation vel -0.002000 -0.004717 -0.003379
# generated_velocity_salt 1518 anion vel 0.007038 -0.003830 0.001530
set type 10 charge 1.000000
Setting atom values ...
  1 settings made for charge
set type 11 charge -1.000000
Setting atom values ...
  1 settings made for charge
run 0 post no # insert flying molecule
PPPM initialization ...
  G vector (1/distance) = 0.29801643
  grid = 15 15 15
  stencil order = 5
  estimated absolute RMS force accuracy = 0.027237903
  estimated relative force accuracy = 8.2026135e-05
  3d grid and FFT values/proc = 1728 150
Step Temp Atoms Density TotEng PotEng KinEng E_coul E_vdwl E_long E_bond E_angle E_dihed Enthalpy Press
10000   198.828486     1518     1.039835 156136.829071 155237.748759   899.080312 22743.165286 163512.614416 -31018.056252     0.025307     0.000003     0.000000 813344.043217 2959945.797449
Loop time of 2.80067e-06 on 27 procs for 0 steps with 1518 atoms

group noneq_run_rigid    intersect   all         water               # select_salt no selection
1500 atoms in group noneq_run_rigid
group noneq_run_pre      subtract    all         noneq_run_rigid     # select_salt no selection
18 atoms in group noneq_run_pre
group noneq_run          subtract    noneq_run_pre   widom_test      # select_salt no selection
16 atoms in group noneq_run
group noneq_run_pre      delete
run 0 post no # mom rev random number
PPPM initialization ...
  G vector (1/distance) = 0.29801643
  grid = 15 15 15
  stencil order = 5
  estimated absolute RMS force accuracy = 0.027237903
  estimated relative force accuracy = 8.2026135e-05
  3d grid and FFT values/proc = 1728 150
Step Temp Atoms Density TotEng PotEng KinEng E_coul E_vdwl E_long E_bond E_angle E_dihed Enthalpy Press
10000   198.828486     1518     1.039835 156136.829071 155237.748759   899.080312 22743.165286 163512.614416 -31018.056252     0.025307     0.000003     0.000000 813344.043217 2959945.797449
Loop time of 3.02085e-06 on 27 procs for 0 steps with 1518 atoms

######################################################################
pair_style   lj/cut/coul/long/neq 14.000000 14.000000 10000 10000 3.000000 7 1 0 1.000000 3.000000 11 1.000000
kspace_style pppm/neq 0.0001 10000 10000 3.000000 7 1 0 1.000000 3.000000 11 1.000000

# LJ JC_SPCE (neq? True)
# real particles
pair_coeff  1 1     0.155354    3.169   14.0   # O O
pair_coeff  3 3     0.352644    2.1595  14.0   # Na Na
pair_coeff  4 4     0.0127851   4.8305  14.0   # Cl Cl
# flying particles
pair_coeff  8 8     0.155354    3.169   14.0   # O O
pair_coeff  10 10   0.352644    2.1595  14.0   # Na Na
pair_coeff  11 11   0.0127851   4.8305  14.0   # Cl Cl
# wall particles: not exist now
pair_coeff  * 5 0 0 14.0
pair_coeff  * 6 0 0 14.0
pair_coeff  * 7 0 0 14.0
# hydrogens
pair_coeff  * 2 0 0 14.0 # hydrogen
pair_coeff  * 9 0 0 14.0 # flying hydrogen

# intramolecular force field
bond_coeff  1   100000   1.0
angle_coeff 1   100000   109.470000

pair_modify  tail no shift yes mix arithmetic # LB mixing rule
neigh_modify delay 2 every 1 check yes page 500000 one 50000
######################################################################
timestep 4.000000
fix  eqmd  noneq_run_rigid     rigid/nve molecule  # rigid water
  500 rigid bodies with 1500 atoms
fix  eqions  noneq_run           nve                 # nve for non-rigid
run 10000 # (neq? True) MD run
4D PPPM initialization ...
  G vector (1/distance) = 0.19374997
  grid = 10 10 10
  stencil order = 5
  estimated absolute RMS force accuracy = 0.018539675
  estimated relative force accuracy = 5.5831682e-05
  3d grid and FFT values/proc = 729 80
  update every 1 steps, delay 2 steps, check yes
Step Temp Atoms Density TotEng PotEng KinEng E_coul E_vdwl E_long E_bond E_angle E_dihed Enthalpy Press
10000   296.578306     1518     1.039835 12958.786576 12059.714240   899.072336 11917.220925  1147.834666 -1005.366661     0.025307     0.000003     0.000000 13060.058563   456.111236
Loop time of 43.0517 on 27 procs for 10000 steps with 1518 atoms

unfix    eqmd
unfix    eqions

group   solvent type 1 2
1500 atoms in group solvent
group   water   type 1 2
1500 atoms in group water
group   ions    type 3 4
16 atoms in group ions
group   wall    type 5 6 7
0 atoms in group wall
group   flying  type 8 9 10 11
2 atoms in group flying
group   eq_run  union solvent ions flying
1518 atoms in group eq_run

######################################################################
pair_style   lj/cut/coul/long 9.000000 9.000000
kspace_style pppm 0.0001

# LJ JC_SPCE (neq? False)
# real particles
pair_coeff  1 1     0.155354    3.169   9.0   # O O
pair_coeff  3 3     0.352644    2.1595  9.0   # Na Na
pair_coeff  4 4     0.0127851   4.8305  9.0   # Cl Cl
# flying particles
pair_coeff  8 8     0.155354    3.169   9.0   # O O
pair_coeff  10 10   0.352644    2.1595  9.0   # Na Na
pair_coeff  11 11   0.0127851   4.8305  9.0   # Cl Cl
# wall particles: not exist now
pair_coeff  * 5 0 0 9.0
pair_coeff  * 6 0 0 9.0
pair_coeff  * 7 0 0 9.0
# hydrogens
pair_coeff  * 2 0 0 9.0 # hydrogen
pair_coeff  * 9 0 0 9.0 # flying hydrogen

# intramolecular force field
bond_coeff  1   100000   1.0
angle_coeff 1   100000   109.470000

pair_modify  tail no shift yes mix arithmetic # LB mixing rule
neigh_modify delay 4 every 1 check yes page 500000 one 50000
######################################################################
run 0 post no # update forcefield; return to Eq
PPPM initialization ...
  G vector (1/distance) = 0.29801643
  grid = 15 15 15
  stencil order = 5
  estimated absolute RMS force accuracy = 0.027237903
  estimated relative force accuracy = 8.2026135e-05
  3d grid and FFT values/proc = 1728 150
  update every 1 steps, delay 4 steps, check yes
Step Temp Atoms Density TotEng PotEng KinEng E_coul E_vdwl E_long E_bond E_angle E_dihed Enthalpy Press
20000   201.353171     1518     1.039835 -6295.780741 -7206.277401   910.496660 22579.196734  1269.915056 -31055.414501     0.025307     0.000003     0.000000  1409.284160 34702.258257
Loop time of 4.89819e-06 on 27 procs for 0 steps with 1518 atoms

# done post_propagate after NEMD
# selected salt 1517/1518
#The center of bimodal dist. on a positive side=2.000000
delete_atoms group widom_test compress no bond yes mol yes # reject_insert
Deleted 2 atoms, new total = 1516
Deleted 0 bonds, new total = 1000
Deleted 0 angles, new total = 500
run 0 post no # delete trial-inserted flying molecule
PPPM initialization ...
  G vector (1/distance) = 0.29801643
  grid = 15 15 15
  stencil order = 5
  estimated absolute RMS force accuracy = 0.027157966
  estimated relative force accuracy = 8.1785407e-05
  3d grid and FFT values/proc = 1728 150
Step Temp Atoms Density TotEng PotEng KinEng E_coul E_vdwl E_long E_bond E_angle E_dihed Enthalpy Press
20000   200.765623     1516     1.033461 -6022.873749 -6929.516693   906.642944 22733.930497  1253.789241 -30917.261741     0.025307     0.000003     0.000000  1683.462276 34707.983174
Loop time of 2.91756e-06 on 27 procs for 0 steps with 1516 atoms

run 0 post no # return_position back to old
PPPM initialization ...
  G vector (1/distance) = 0.29801643
  grid = 15 15 15
  stencil order = 5
  estimated absolute RMS force accuracy = 0.027157966
  estimated relative force accuracy = 8.1785407e-05
  3d grid and FFT values/proc = 1728 150
Step Temp Atoms Density TotEng PotEng KinEng E_coul E_vdwl E_long E_bond E_angle E_dihed Enthalpy Press
20000   198.237605     1516     1.033461 -6123.976912 -7019.203508   895.226596 22727.475903  1193.442177 -30940.146898     0.025307     0.000003     0.000000  1292.763087 33403.693564
Loop time of 2.86215e-06 on 27 procs for 0 steps with 1516 atoms

group widom_test         delete
group noneq_run          delete
group noneq_run_rigid    delete
reset_timestep 10000

group   solvent delete
group   water   delete
group   ions    delete
group   wall    delete
group   flying  delete
group   eq_run  delete

group   solvent type 1 2
1500 atoms in group solvent
group   water   type 1 2
1500 atoms in group water
group   ions    type 3 4
16 atoms in group ions
group   wall    type 5 6 7
0 atoms in group wall
group   flying  type 8 9 10 11
0 atoms in group flying
group   eq_run  union solvent ions flying
1516 atoms in group eq_run

######################################################################
pair_style   lj/cut/coul/long 9.000000 9.000000
kspace_style pppm 0.0001

# LJ JC_SPCE (neq? False)
# real particles
pair_coeff  1 1     0.155354    3.169   9.0   # O O
pair_coeff  3 3     0.352644    2.1595  9.0   # Na Na
pair_coeff  4 4     0.0127851   4.8305  9.0   # Cl Cl
# flying particles
pair_coeff  8 8     0.155354    3.169   9.0   # O O
pair_coeff  10 10   0.352644    2.1595  9.0   # Na Na
pair_coeff  11 11   0.0127851   4.8305  9.0   # Cl Cl
# wall particles: not exist now
pair_coeff  * 5 0 0 9.0
pair_coeff  * 6 0 0 9.0
pair_coeff  * 7 0 0 9.0
# hydrogens
pair_coeff  * 2 0 0 9.0 # hydrogen
pair_coeff  * 9 0 0 9.0 # flying hydrogen

# intramolecular force field
bond_coeff  1   100000   1.0
angle_coeff 1   100000   109.470000

pair_modify  tail no shift yes mix arithmetic # LB mixing rule
neigh_modify delay 4 every 1 check yes page 500000 one 50000
######################################################################
# shake is off; should be a dummy run
timestep 2.000000
thermo 2000
fix  eqmd   eq_run npt temp 298.150000 298.150000 200.000000 iso 1.000000 1.000000 2000.000000
run 0 # (neq? False) MD run
PPPM initialization ...
  G vector (1/distance) = 0.29801643
  grid = 15 15 15
  stencil order = 5
  estimated absolute RMS force accuracy = 0.027157966
  estimated relative force accuracy = 8.1785407e-05
  3d grid and FFT values/proc = 1728 150
Step Temp Atoms Density TotEng PotEng KinEng E_coul E_vdwl E_long E_bond E_angle E_dihed Enthalpy Press
10000   198.237605     1516     1.033461 -6123.976912 -7019.203508   895.226596 22727.475903  1193.442177 -30940.146898     0.025307     0.000003     0.000000  1292.763087 33403.693564
Loop time of 3.03056e-06 on 27 procs for 0 steps with 1516 atoms

unfix    eqmd
#The center (2.000000) and alpha (1.000000) of bimodal biasing function
create_atoms 10 single -5.783387 -10.010399 3.529115
Created 1 atoms
create_atoms 11 single -8.555249 -11.145354 1.495106
Created 1 atoms
set atom 1518 image 0 0 0
Setting atom values ...
  1 settings made for image
group   widom_test  type    10 11 # insert salt-pair
2 atoms in group widom_test
run 0 post no # temp=0.593298 unit_lj?=False velocity generated
PPPM initialization ...
  G vector (1/distance) = 0.29801643
  grid = 15 15 15
  stencil order = 5
  estimated absolute RMS force accuracy = 0.027140069
  estimated relative force accuracy = 8.1731512e-05
  3d grid and FFT values/proc = 1728 150
Step Temp Atoms Density TotEng PotEng KinEng E_coul E_vdwl E_long E_bond E_angle E_dihed Enthalpy Press
10000   198.076055     1518     1.039835 -1898.233924 -2793.911829   895.677905 22727.475890  5418.733856 -30940.146885     0.025307     0.000003     0.000000 22548.243004 110102.635952
Loop time of 3.3613e-06 on 27 procs for 0 steps with 1518 atoms

run 0 post no # temp=0.593298 unit_lj?=False velocity generated
PPPM initialization ...
  G vector (1/distance) = 0.29801643
  grid = 15 15 15
  stencil order = 5
  estimated absolute RMS force accuracy = 0.027140069
  estimated relative force accuracy = 8.1731512e-05
  3d grid and FFT values/proc = 1728 150
Step Temp Atoms Density TotEng PotEng KinEng E_coul E_vdwl E_long E_bond E_angle E_dihed Enthalpy Press
10000   198.514998     1518     1.039835 -1896.249072 -2793.911829   897.662757 22727.475890  5418.733856 -30940.146885     0.025307     0.000003     0.000000 22551.551090 110108.595568
Loop time of 2.77248e-06 on 27 procs for 0 steps with 1518 atoms

# generated_velocity_salt 1517 cation vel 0.003715 0.001304 -0.000963
# generated_velocity_salt 1518 anion vel -0.004660 -0.003554 -0.003536
set type 10 charge 1.000000
Setting atom values ...
  1 settings made for charge
set type 11 charge -1.000000
Setting atom values ...
  1 settings made for charge
run 0 post no # insert flying molecule
PPPM initialization ...
  G vector (1/distance) = 0.29801643
  grid = 15 15 15
  stencil order = 5
  estimated absolute RMS force accuracy = 0.027237903
  estimated relative force accuracy = 8.2026135e-05
  3d grid and FFT values/proc = 1728 150
Step Temp Atoms Density TotEng PotEng KinEng E_coul E_vdwl E_long E_bond E_angle E_dihed Enthalpy Press
10000   198.514998     1518     1.039835 -1996.995650 -2894.658407   897.662757 22707.707490  5418.733856 -31021.125062     0.025307     0.000003     0.000000 22417.219790 109957.335880
Loop time of 2.71107e-06 on 27 procs for 0 steps with 1518 atoms

group noneq_run_rigid    intersect   all         water               # select_salt no selection
1500 atoms in group noneq_run_rigid
group noneq_run_pre      subtract    all         noneq_run_rigid     # select_salt no selection
18 atoms in group noneq_run_pre
group noneq_run          subtract    noneq_run_pre   widom_test      # select_salt no selection
16 atoms in group noneq_run
group noneq_run_pre      delete
run 0 post no # mom rev random number
PPPM initialization ...
  G vector (1/distance) = 0.29801643
  grid = 15 15 15
  stencil order = 5
  estimated absolute RMS force accuracy = 0.027237903
  estimated relative force accuracy = 8.2026135e-05
  3d grid and FFT values/proc = 1728 150
Step Temp Atoms Density TotEng PotEng KinEng E_coul E_vdwl E_long E_bond E_angle E_dihed Enthalpy Press
10000   198.514998     1518     1.039835 -1996.995650 -2894.658407   897.662757 22707.707490  5418.733856 -31021.125062     0.025307     0.000003     0.000000 22417.219790 109957.335880
Loop time of 2.75163e-06 on 27 procs for 0 steps with 1518 atoms

######################################################################
pair_style   lj/cut/coul/long/neq 14.000000 14.000000 10000 10000 3.000000 7 1 0 1.000000 3.000000 11 1.000000
kspace_style pppm/neq 0.0001 10000 10000 3.000000 7 1 0 1.000000 3.000000 11 1.000000

# LJ JC_SPCE (neq? True)
# real particles
pair_coeff  1 1     0.155354    3.169   14.0   # O O
pair_coeff  3 3     0.352644    2.1595  14.0   # Na Na
pair_coeff  4 4     0.0127851   4.8305  14.0   # Cl Cl
# flying particles
pair_coeff  8 8     0.155354    3.169   14.0   # O O
pair_coeff  10 10   0.352644    2.1595  14.0   # Na Na
pair_coeff  11 11   0.0127851   4.8305  14.0   # Cl Cl
# wall particles: not exist now
pair_coeff  * 5 0 0 14.0
pair_coeff  * 6 0 0 14.0
pair_coeff  * 7 0 0 14.0
# hydrogens
pair_coeff  * 2 0 0 14.0 # hydrogen
pair_coeff  * 9 0 0 14.0 # flying hydrogen

# intramolecular force field
bond_coeff  1   100000   1.0
angle_coeff 1   100000   109.470000

pair_modify  tail no shift yes mix arithmetic # LB mixing rule
neigh_modify delay 2 every 1 check yes page 500000 one 50000
######################################################################
timestep 4.000000
fix  eqmd  noneq_run_rigid     rigid/nve molecule  # rigid water
  500 rigid bodies with 1500 atoms
fix  eqions  noneq_run           nve                 # nve for non-rigid
run 10000 # (neq? True) MD run
4D PPPM initialization ...
  G vector (1/distance) = 0.19374997
  grid = 10 10 10
  stencil order = 5
  estimated absolute RMS force accuracy = 0.018539675
  estimated relative force accuracy = 5.5831682e-05
  3d grid and FFT values/proc = 729 80
  update every 1 steps, delay 2 steps, check yes
Step Temp Atoms Density TotEng PotEng KinEng E_coul E_vdwl E_long E_bond E_angle E_dihed Enthalpy Press
10000   296.110695     1518     1.039835 12956.466436 12058.811655   897.654781 11917.147419  1146.988770 -1005.349844     0.025307     0.000003     0.000000 13066.757836   496.733083
Loop time of 42.823 on 27 procs for 10000 steps with 1518 atoms

unfix    eqmd
unfix    eqions

group   solvent type 1 2
1500 atoms in group solvent
group   water   type 1 2
1500 atoms in group water
group   ions    type 3 4
16 atoms in group ions
group   wall    type 5 6 7
0 atoms in group wall
group   flying  type 8 9 10 11
2 atoms in group flying
group   eq_run  union solvent ions flying
1518 atoms in group eq_run

######################################################################
pair_style   lj/cut/coul/long 9.000000 9.000000
kspace_style pppm 0.0001

# LJ JC_SPCE (neq? False)
# real particles
pair_coeff  1 1     0.155354    3.169   9.0   # O O
pair_coeff  3 3     0.352644    2.1595  9.0   # Na Na
pair_coeff  4 4     0.0127851   4.8305  9.0   # Cl Cl
# flying particles
pair_coeff  8 8     0.155354    3.169   9.0   # O O
pair_coeff  10 10   0.352644    2.1595  9.0   # Na Na
pair_coeff  11 11   0.0127851   4.8305  9.0   # Cl Cl
# wall particles: not exist now
pair_coeff  * 5 0 0 9.0
pair_coeff  * 6 0 0 9.0
pair_coeff  * 7 0 0 9.0
# hydrogens
pair_coeff  * 2 0 0 9.0 # hydrogen
pair_coeff  * 9 0 0 9.0 # flying hydrogen

# intramolecular force field
bond_coeff  1   100000   1.0
angle_coeff 1   100000   109.470000

pair_modify  tail no shift yes mix arithmetic # LB mixing rule
neigh_modify delay 4 every 1 check yes page 500000 one 50000
######################################################################
run 0 post no # update forcefield; return to Eq
PPPM initialization ...
  G vector (1/distance) = 0.29801643
  grid = 15 15 15
  stencil order = 5
  estimated absolute RMS force accuracy = 0.027237903
  estimated relative force accuracy = 8.2026135e-05
  3d grid and FFT values/proc = 1728 150
  update every 1 steps, delay 4 steps, check yes
Step Temp Atoms Density TotEng PotEng KinEng E_coul E_vdwl E_long E_bond E_angle E_dihed Enthalpy Press
20000   198.427956     1518     1.039835 -6293.052913 -7190.322073   897.269161 22625.604051  1235.584642 -31051.536076     0.025307     0.000003     0.000000  1255.347833 33996.670433
Loop time of 2.7807e-06 on 27 procs for 0 steps with 1518 atoms

# done post_propagate after NEMD
# selected salt 1517/1518
#The center of bimodal dist. on a positive side=2.000000
delete_atoms group widom_test compress no bond yes mol yes # reject_insert
Deleted 2 atoms, new total = 1516
Deleted 0 bonds, new total = 1000
Deleted 0 angles, new total = 500
run 0 post no # delete trial-inserted flying molecule
PPPM initialization ...
  G vector (1/distance) = 0.29801643
  grid = 15 15 15
  stencil order = 5
  estimated absolute RMS force accuracy = 0.027157966
  estimated relative force accuracy = 8.1785407e-05
  3d grid and FFT values/proc = 1728 150
Step Temp Atoms Density TotEng PotEng KinEng E_coul E_vdwl E_long E_bond E_angle E_dihed Enthalpy Press
20000   198.150447     1516     1.033461 -6038.824492 -6933.657492   894.833000 22767.391347  1211.199517 -30912.273666     0.025307     0.000003     0.000000  1474.497816 33838.683314
Loop time of 3.26104e-06 on 27 procs for 0 steps with 1516 atoms

run 0 post no # return_position back to old
PPPM initialization ...
  G vector (1/distance) = 0.29801643
  grid = 15 15 15
  stencil order = 5
  estimated absolute RMS force accuracy = 0.027157966
  estimated relative force accuracy = 8.1785407e-05
  3d grid and FFT values/proc = 1728 150
Step Temp Atoms Density TotEng PotEng KinEng E_coul E_vdwl E_long E_bond E_angle E_dihed Enthalpy Press
20000   198.237605     1516     1.033461 -6123.976918 -7019.203514   895.226596 22727.475903  1193.442177 -30940.146904     0.025307     0.000003     0.000000  1292.763080 33403.693562
Loop time of 2.86274e-06 on 27 procs for 0 steps with 1516 atoms

group widom_test         delete
group noneq_run          delete
group noneq_run_rigid    delete
reset_timestep 10000

group   solvent delete
group   water   delete
group   ions    delete
group   wall    delete
group   flying  delete
group   eq_run  delete

group   solvent type 1 2
1500 atoms in group solvent
group   water   type 1 2
1500 atoms in group water
group   ions    type 3 4
16 atoms in group ions
group   wall    type 5 6 7
0 atoms in group wall
group   flying  type 8 9 10 11
0 atoms in group flying
group   eq_run  union solvent ions flying
1516 atoms in group eq_run

######################################################################
pair_style   lj/cut/coul/long 9.000000 9.000000
kspace_style pppm 0.0001

# LJ JC_SPCE (neq? False)
# real particles
pair_coeff  1 1     0.155354    3.169   9.0   # O O
pair_coeff  3 3     0.352644    2.1595  9.0   # Na Na
pair_coeff  4 4     0.0127851   4.8305  9.0   # Cl Cl
# flying particles
pair_coeff  8 8     0.155354    3.169   9.0   # O O
pair_coeff  10 10   0.352644    2.1595  9.0   # Na Na
pair_coeff  11 11   0.0127851   4.8305  9.0   # Cl Cl
# wall particles: not exist now
pair_coeff  * 5 0 0 9.0
pair_coeff  * 6 0 0 9.0
pair_coeff  * 7 0 0 9.0
# hydrogens
pair_coeff  * 2 0 0 9.0 # hydrogen
pair_coeff  * 9 0 0 9.0 # flying hydrogen

# intramolecular force field
bond_coeff  1   100000   1.0
angle_coeff 1   100000   109.470000

pair_modify  tail no shift yes mix arithmetic # LB mixing rule
neigh_modify delay 4 every 1 check yes page 500000 one 50000
######################################################################
# shake is off; should be a dummy run
timestep 2.000000
thermo 2000
fix  eqmd   eq_run npt temp 298.150000 298.150000 200.000000 iso 1.000000 1.000000 2000.000000
run 0 # (neq? False) MD run
PPPM initialization ...
  G vector (1/distance) = 0.29801643
  grid = 15 15 15
  stencil order = 5
  estimated absolute RMS force accuracy = 0.027157966
  estimated relative force accuracy = 8.1785407e-05
  3d grid and FFT values/proc = 1728 150
Step Temp Atoms Density TotEng PotEng KinEng E_coul E_vdwl E_long E_bond E_angle E_dihed Enthalpy Press
10000   198.237605     1516     1.033461 -6123.976918 -7019.203514   895.226596 22727.475903  1193.442177 -30940.146904     0.025307     0.000003     0.000000  1292.763080 33403.693562
Loop time of 3.046e-06 on 27 procs for 0 steps with 1516 atoms

unfix    eqmd
#The center (2.000000) and alpha (1.000000) of bimodal biasing function
create_atoms 10 single -1.629052 5.117262 4.625574
Created 1 atoms
create_atoms 11 single -3.979052 2.606595 7.568571
Created 1 atoms
set atom 1518 image 0 0 0
Setting atom values ...
  1 settings made for image
group   widom_test  type    10 11 # insert salt-pair
2 atoms in group widom_test
run 0 post no # temp=0.593298 unit_lj?=False velocity generated
PPPM initialization ...
  G vector (1/distance) = 0.29801643
  grid = 15 15 15
  stencil order = 5
  estimated absolute RMS force accuracy = 0.027140069
  estimated relative force accuracy = 8.1731512e-05
  3d grid and FFT values/proc = 1728 150
Step Temp Atoms Density TotEng PotEng KinEng E_coul E_vdwl E_long E_bond E_angle E_dihed Enthalpy Press
10000   198.246587     1518     1.039835 -2567.743320 -3464.192350   896.449030 22727.475890  4748.453341 -30940.146891     0.025307     0.000003     0.000000 19239.237839 98214.810862
Loop time of 3.20052e-06 on 27 procs for 0 steps with 1518 atoms

run 0 post no # temp=0.593298 unit_lj?=False velocity generated
PPPM initialization ...
  G vector (1/distance) = 0.29801643
  grid = 15 15 15
  stencil order = 5
  estimated absolute RMS force accuracy = 0.027140069
  estimated relative force accuracy = 8.1731512e-05
  3d grid and FFT values/proc = 1728 150
Step Temp Atoms Density TotEng PotEng KinEng E_coul E_vdwl E_long E_bond E_angle E_dihed Enthalpy Press
10000   198.431773     1518     1.039835 -2566.905927 -3464.192350   897.286423 22727.475890  4748.453341 -30940.146891     0.025307     0.000003     0.000000 19240.633493 98217.325175
Loop time of 2.91063e-06 on 27 procs for 0 steps with 1518 atoms

# generated_velocity_salt 1517 cation vel 0.003724 0.005517 -0.000435
# generated_velocity_salt 1518 anion vel 0.000420 -0.004157 0.001520
set type 10 charge 1.000000
Setting atom values ...
  1 settings made for charge
set type 11 charge -1.000000
Setting atom values ...
  1 settings made for charge
run 0 post no # insert flying molecule
PPPM initialization ...
  G vector (1/distance) = 0.29801643
  grid = 15 15 15
  stencil order = 5
  estimated absolute RMS force accuracy = 0.027237903
  estimated relative force accuracy = 8.2026135e-05
  3d grid and FFT values/proc = 1728 150
Step Temp Atoms Density TotEng PotEng KinEng E_coul E_vdwl E_long E_bond E_angle E_dihed Enthalpy Press
10000   198.431773     1518     1.039835 -2667.382373 -3564.668796   897.286423 22701.379456  4748.453341 -31014.526903     0.025307     0.000003     0.000000 19106.652945 98066.428585
Loop time of 3.12056e-06 on 27 procs for 0 steps with 1518 atoms

group noneq_run_rigid    intersect   all         water               # select_salt no selection
1500 atoms in group noneq_run_rigid
group noneq_run_pre      subtract    all         noneq_run_rigid     # select_salt no selection
18 atoms in group noneq_run_pre
group noneq_run          subtract    noneq_run_pre   widom_test      # select_salt no selection
16 atoms in group noneq_run
group noneq_run_pre      delete
run 0 post no # mom rev random number
PPPM initialization ...
  G vector (1/distance) = 0.29801643
  grid = 15 15 15
  stencil order = 5
  estimated absolute RMS force accuracy = 0.027237903
  estimated relative force accuracy = 8.2026135e-05
  3d grid and FFT values/proc = 1728 150
Step Temp Atoms Density TotEng PotEng KinEng E_coul E_vdwl E_long E_bond E_angle E_dihed Enthalpy Press
10000   198.431773     1518     1.039835 -2667.382373 -3564.668796   897.286423 22701.379456  4748.453341 -31014.526903     0.025307     0.000003     0.000000 19106.652945 98066.428585
Loop time of 2.63963e-06 on 27 procs for 0 steps with 1518 atoms

######################################################################
pair_style   lj/cut/coul/long/neq 14.000000 14.000000 10000 10000 3.000000 7 1 0 1.000000 3.000000 11 1.000000
kspace_style pppm/neq 0.0001 10000 10000 3.000000 7 1 0 1.000000 3.000000 11 1.000000

# LJ JC_SPCE (neq? True)
# real particles
pair_coeff  1 1     0.155354    3.169   14.0   # O O
pair_coeff  3 3     0.352644    2.1595  14.0   # Na Na
pair_coeff  4 4     0.0127851   4.8305  14.0   # Cl Cl
# flying particles
pair_coeff  8 8     0.155354    3.169   14.0   # O O
pair_coeff  10 10   0.352644    2.1595  14.0   # Na Na
pair_coeff  11 11   0.0127851   4.8305  14.0   # Cl Cl
# wall particles: not exist now
pair_coeff  * 5 0 0 14.0
pair_coeff  * 6 0 0 14.0
pair_coeff  * 7 0 0 14.0
# hydrogens
pair_coeff  * 2 0 0 14.0 # hydrogen
pair_coeff  * 9 0 0 14.0 # flying hydrogen

# intramolecular force field
bond_coeff  1   100000   1.0
angle_coeff 1   100000   109.470000

pair_modify  tail no shift yes mix arithmetic # LB mixing rule
neigh_modify delay 2 every 1 check yes page 500000 one 50000
######################################################################
timestep 4.000000
fix  eqmd  noneq_run_rigid     rigid/nve molecule  # rigid water
  500 rigid bodies with 1500 atoms
fix  eqions  noneq_run           nve                 # nve for non-rigid
run 10000 # (neq? True) MD run
4D PPPM initialization ...
  G vector (1/distance) = 0.19374997
  grid = 10 10 10
  stencil order = 5
  estimated absolute RMS force accuracy = 0.018539675
  estimated relative force accuracy = 5.5831682e-05
  3d grid and FFT values/proc = 729 80
  update every 1 steps, delay 2 steps, check yes
Step Temp Atoms Density TotEng PotEng KinEng E_coul E_vdwl E_long E_bond E_angle E_dihed Enthalpy Press
10000   295.986553     1518     1.039835 12955.766093 12058.487646   897.278447 11917.105017  1146.613253 -1005.255934     0.025307     0.000003     0.000000 13058.141956   461.082895
Loop time of 42.9314 on 27 procs for 10000 steps with 1518 atoms

unfix    eqmd
unfix    eqions

group   solvent type 1 2
1500 atoms in group solvent
group   water   type 1 2
1500 atoms in group water
group   ions    type 3 4
16 atoms in group ions
group   wall    type 5 6 7
0 atoms in group wall
group   flying  type 8 9 10 11
2 atoms in group flying
group   eq_run  union solvent ions flying
1518 atoms in group eq_run

######################################################################
pair_style   lj/cut/coul/long 9.000000 9.000000
kspace_style pppm 0.0001

# LJ JC_SPCE (neq? False)
# real particles
pair_coeff  1 1     0.155354    3.169   9.0   # O O
pair_coeff  3 3     0.352644    2.1595  9.0   # Na Na
pair_coeff  4 4     0.0127851   4.8305  9.0   # Cl Cl
# flying particles
pair_coeff  8 8     0.155354    3.169   9.0   # O O
pair_coeff  10 10   0.352644    2.1595  9.0   # Na Na
pair_coeff  11 11   0.0127851   4.8305  9.0   # Cl Cl
# wall particles: not exist now
pair_coeff  * 5 0 0 9.0
pair_coeff  * 6 0 0 9.0
pair_coeff  * 7 0 0 9.0
# hydrogens
pair_coeff  * 2 0 0 9.0 # hydrogen
pair_coeff  * 9 0 0 9.0 # flying hydrogen

# intramolecular force field
bond_coeff  1   100000   1.0
angle_coeff 1   100000   109.470000

pair_modify  tail no shift yes mix arithmetic # LB mixing rule
neigh_modify delay 4 every 1 check yes page 500000 one 50000
######################################################################
run 0 post no # update forcefield; return to Eq
PPPM initialization ...
  G vector (1/distance) = 0.29801643
  grid = 15 15 15
  stencil order = 5
  estimated absolute RMS force accuracy = 0.027237903
  estimated relative force accuracy = 8.2026135e-05
  3d grid and FFT values/proc = 1728 150
  update every 1 steps, delay 4 steps, check yes
Step Temp Atoms Density TotEng PotEng KinEng E_coul E_vdwl E_long E_bond E_angle E_dihed Enthalpy Press
20000   197.016985     1518     1.039835 -6294.280713 -7185.169619   890.888906 22700.777905  1171.838880 -31057.811714     0.025307     0.000003     0.000000  1016.273617 32925.451973
Loop time of 4.83285e-06 on 27 procs for 0 steps with 1518 atoms

# done post_propagate after NEMD
# selected salt 1517/1518
#The center of bimodal dist. on a positive side=2.000000
delete_atoms group widom_test compress no bond yes mol yes # reject_insert
Deleted 2 atoms, new total = 1516
Deleted 0 bonds, new total = 1000
Deleted 0 angles, new total = 500
run 0 post no # delete trial-inserted flying molecule
PPPM initialization ...
  G vector (1/distance) = 0.29801643
  grid = 15 15 15
  stencil order = 5
  estimated absolute RMS force accuracy = 0.027157966
  estimated relative force accuracy = 8.1785407e-05
  3d grid and FFT values/proc = 1728 150
Step Temp Atoms Density TotEng PotEng KinEng E_coul E_vdwl E_long E_bond E_angle E_dihed Enthalpy Press
20000   196.820948     1516     1.033461 -5990.654587 -6879.483667   888.829080 22891.774849  1143.759475 -30915.043300     0.025307     0.000003     0.000000  1279.460169 32743.319242
Loop time of 2.8243e-06 on 27 procs for 0 steps with 1516 atoms

run 0 post no # return_position back to old
PPPM initialization ...
  G vector (1/distance) = 0.29801643
  grid = 15 15 15
  stencil order = 5
  estimated absolute RMS force accuracy = 0.027157966
  estimated relative force accuracy = 8.1785407e-05
  3d grid and FFT values/proc = 1728 150
Step Temp Atoms Density TotEng PotEng KinEng E_coul E_vdwl E_long E_bond E_angle E_dihed Enthalpy Press
20000   198.237605     1516     1.033461 -6123.976917 -7019.203513   895.226596 22727.475903  1193.442177 -30940.146903     0.025307     0.000003     0.000000  1292.763082 33403.693565
Loop time of 3.62807e-06 on 27 procs for 0 steps with 1516 atoms

group widom_test         delete
group noneq_run          delete
group noneq_run_rigid    delete
reset_timestep 10000

group   solvent delete
group   water   delete
group   ions    delete
group   wall    delete
group   flying  delete
group   eq_run  delete

group   solvent type 1 2
1500 atoms in group solvent
group   water   type 1 2
1500 atoms in group water
group   ions    type 3 4
16 atoms in group ions
group   wall    type 5 6 7
0 atoms in group wall
group   flying  type 8 9 10 11
0 atoms in group flying
group   eq_run  union solvent ions flying
1516 atoms in group eq_run

######################################################################
pair_style   lj/cut/coul/long 9.000000 9.000000
kspace_style pppm 0.0001

# LJ JC_SPCE (neq? False)
# real particles
pair_coeff  1 1     0.155354    3.169   9.0   # O O
pair_coeff  3 3     0.352644    2.1595  9.0   # Na Na
pair_coeff  4 4     0.0127851   4.8305  9.0   # Cl Cl
# flying particles
pair_coeff  8 8     0.155354    3.169   9.0   # O O
pair_coeff  10 10   0.352644    2.1595  9.0   # Na Na
pair_coeff  11 11   0.0127851   4.8305  9.0   # Cl Cl
# wall particles: not exist now
pair_coeff  * 5 0 0 9.0
pair_coeff  * 6 0 0 9.0
pair_coeff  * 7 0 0 9.0
# hydrogens
pair_coeff  * 2 0 0 9.0 # hydrogen
pair_coeff  * 9 0 0 9.0 # flying hydrogen

# intramolecular force field
bond_coeff  1   100000   1.0
angle_coeff 1   100000   109.470000

pair_modify  tail no shift yes mix arithmetic # LB mixing rule
neigh_modify delay 4 every 1 check yes page 500000 one 50000
######################################################################
# shake is off; should be a dummy run
timestep 2.000000
thermo 2000
fix  eqmd   eq_run npt temp 298.150000 298.150000 200.000000 iso 1.000000 1.000000 2000.000000
run 0 # (neq? False) MD run
PPPM initialization ...
  G vector (1/distance) = 0.29801643
  grid = 15 15 15
  stencil order = 5
  estimated absolute RMS force accuracy = 0.027157966
  estimated relative force accuracy = 8.1785407e-05
  3d grid and FFT values/proc = 1728 150
Step Temp Atoms Density TotEng PotEng KinEng E_coul E_vdwl E_long E_bond E_angle E_dihed Enthalpy Press
10000   198.237605     1516     1.033461 -6123.976917 -7019.203513   895.226596 22727.475903  1193.442177 -30940.146903     0.025307     0.000003     0.000000  1292.763082 33403.693565
Loop time of 3.26667e-06 on 27 procs for 0 steps with 1516 atoms

unfix    eqmd
#The center (2.000000) and alpha (1.000000) of bimodal biasing function
create_atoms 10 single -4.531546 0.353423 -7.961178
Created 1 atoms
create_atoms 11 single -7.324475 2.582705 -8.694177
Created 1 atoms
set atom 1518 image 0 0 0
Setting atom values ...
  1 settings made for image
group   widom_test  type    10 11 # insert salt-pair
2 atoms in group widom_test
run 0 post no # temp=0.593298 unit_lj?=False velocity generated
PPPM initialization ...
  G vector (1/distance) = 0.29801643
  grid = 15 15 15
  stencil order = 5
  estimated absolute RMS force accuracy = 0.027140069
  estimated relative force accuracy = 8.1731512e-05
  3d grid and FFT values/proc = 1728 150
Step Temp Atoms Density TotEng PotEng KinEng E_coul E_vdwl E_long E_bond E_angle E_dihed Enthalpy Press
10000   198.004397     1518     1.039835 -5906.215267 -6801.569143   895.353876 22727.475890  1411.076546 -30940.146890     0.025307     0.000003     0.000000  2439.600762 37588.088734
Loop time of 3.08378e-06 on 27 procs for 0 steps with 1518 atoms

run 0 post no # temp=0.593298 unit_lj?=False velocity generated
PPPM initialization ...
  G vector (1/distance) = 0.29801643
  grid = 15 15 15
  stencil order = 5
  estimated absolute RMS force accuracy = 0.027140069
  estimated relative force accuracy = 8.1731512e-05
  3d grid and FFT values/proc = 1728 150
Step Temp Atoms Density TotEng PotEng KinEng E_coul E_vdwl E_long E_bond E_angle E_dihed Enthalpy Press
10000   198.320233     1518     1.039835 -5904.787095 -6801.569143   896.782048 22727.475890  1411.076546 -30940.146890     0.025307     0.000003     0.000000  2441.981049 37592.376892
Loop time of 2.7043e-06 on 27 procs for 0 steps with 1518 atoms

# generated_velocity_salt 1517 cation vel -0.000261 0.000160 0.002131
# generated_velocity_salt 1518 anion vel -0.004086 0.000374 -0.004108
set type 10 charge 1.000000
Setting atom values ...
  1 settings made for charge
set type 11 charge -1.000000
Setting atom values ...
  1 settings made for charge
run 0 post no # insert flying molecule
PPPM initialization ...
  G vector (1/distance) = 0.29801643
  grid = 15 15 15
  stencil order = 5
  estimated absolute RMS force accuracy = 0.027237903
  estimated relative force accuracy = 8.2026135e-05
  3d grid and FFT values/proc = 1728 150
Loop time of 2.81422e-06 on 27 procs for 0 steps with 1518 atoms

group noneq_run_rigid    intersect   all         water               # select_salt no selection
1500 atoms in group noneq_run_rigid
group noneq_run_pre      subtract    all         noneq_run_rigid     # select_salt no selection
18 atoms in group noneq_run_pre
group noneq_run          subtract    noneq_run_pre   widom_test      # select_salt no selection
16 atoms in group noneq_run
group noneq_run_pre      delete
run 0 post no # mom rev random number
PPPM initialization ...
  G vector (1/distance) = 0.29801643
  grid = 15 15 15
  stencil order = 5
  estimated absolute RMS force accuracy = 0.027237903
  estimated relative force accuracy = 8.2026135e-05
  3d grid and FFT values/proc = 1728 150
Loop time of 2.73144e-06 on 27 procs for 0 steps with 1518 atoms

######################################################################
pair_style   lj/cut/coul/long/neq 14.000000 14.000000 10000 10000 3.000000 7 1 0 1.000000 3.000000 11 1.000000
kspace_style pppm/neq 0.0001 10000 10000 3.000000 7 1 0 1.000000 3.000000 11 1.000000

# LJ JC_SPCE (neq? True)
# real particles
pair_coeff  1 1     0.155354    3.169   14.0   # O O
pair_coeff  3 3     0.352644    2.1595  14.0   # Na Na
pair_coeff  4 4     0.0127851   4.8305  14.0   # Cl Cl
# flying particles
pair_coeff  8 8     0.155354    3.169   14.0   # O O
pair_coeff  10 10   0.352644    2.1595  14.0   # Na Na
pair_coeff  11 11   0.0127851   4.8305  14.0   # Cl Cl
# wall particles: not exist now
pair_coeff  * 5 0 0 14.0
pair_coeff  * 6 0 0 14.0
pair_coeff  * 7 0 0 14.0
# hydrogens
pair_coeff  * 2 0 0 14.0 # hydrogen
pair_coeff  * 9 0 0 14.0 # flying hydrogen

# intramolecular force field
bond_coeff  1   100000   1.0
angle_coeff 1   100000   109.470000

pair_modify  tail no shift yes mix arithmetic # LB mixing rule
neigh_modify delay 2 every 1 check yes page 500000 one 50000
######################################################################
timestep 4.000000
fix  eqmd  noneq_run_rigid     rigid/nve molecule  # rigid water
  500 rigid bodies with 1500 atoms
fix  eqions  noneq_run           nve                 # nve for non-rigid
run 10000 # (neq? True) MD run
4D PPPM initialization ...
  G vector (1/distance) = 0.19374997
  grid = 10 10 10
  stencil order = 5
  estimated absolute RMS force accuracy = 0.018539675
  estimated relative force accuracy = 5.5831682e-05
  3d grid and FFT values/proc = 729 80
  update every 1 steps, delay 2 steps, check yes
Loop time of 42.8029 on 27 procs for 10000 steps with 1518 atoms

unfix    eqmd
unfix    eqions

group   solvent type 1 2
1500 atoms in group solvent
group   water   type 1 2
1500 atoms in group water
group   ions    type 3 4
16 atoms in group ions
group   wall    type 5 6 7
0 atoms in group wall
group   flying  type 8 9 10 11
2 atoms in group flying
group   eq_run  union solvent ions flying
1518 atoms in group eq_run

######################################################################
pair_style   lj/cut/coul/long 9.000000 9.000000
kspace_style pppm 0.0001

# LJ JC_SPCE (neq? False)
# real particles
pair_coeff  1 1     0.155354    3.169   9.0   # O O
pair_coeff  3 3     0.352644    2.1595  9.0   # Na Na
pair_coeff  4 4     0.0127851   4.8305  9.0   # Cl Cl
# flying particles
pair_coeff  8 8     0.155354    3.169   9.0   # O O
pair_coeff  10 10   0.352644    2.1595  9.0   # Na Na
pair_coeff  11 11   0.0127851   4.8305  9.0   # Cl Cl
# wall particles: not exist now
pair_coeff  * 5 0 0 9.0
pair_coeff  * 6 0 0 9.0
pair_coeff  * 7 0 0 9.0
# hydrogens
pair_coeff  * 2 0 0 9.0 # hydrogen
pair_coeff  * 9 0 0 9.0 # flying hydrogen

# intramolecular force field
bond_coeff  1   100000   1.0
angle_coeff 1   100000   109.470000

pair_modify  tail no shift yes mix arithmetic # LB mixing rule
neigh_modify delay 4 every 1 check yes page 500000 one 50000
######################################################################
run 0 post no # update forcefield; return to Eq
PPPM initialization ...
  G vector (1/distance) = 0.29801643
  grid = 15 15 15
  stencil order = 5
  estimated absolute RMS force accuracy = 0.027237903
  estimated relative force accuracy = 8.2026135e-05
  3d grid and FFT values/proc = 1728 150
  update every 1 steps, delay 4 steps, check yes
Loop time of 2.87907e-06 on 27 procs for 0 steps with 1518 atoms

# done post_propagate after NEMD
# selected salt 1517/1518
#The center of bimodal dist. on a positive side=2.000000
delete_atoms group widom_test compress no bond yes mol yes # reject_insert
Deleted 2 atoms, new total = 1516
Deleted 0 bonds, new total = 1000
Deleted 0 angles, new total = 500
run 0 post no # delete trial-inserted flying molecule
PPPM initialization ...
  G vector (1/distance) = 0.29801643
  grid = 15 15 15
  stencil order = 5
  estimated absolute RMS force accuracy = 0.027157966
  estimated relative force accuracy = 8.1785407e-05
  3d grid and FFT values/proc = 1728 150
Loop time of 2.74026e-06 on 27 procs for 0 steps with 1516 atoms

run 0 post no # return_position back to old
PPPM initialization ...
  G vector (1/distance) = 0.29801643
  grid = 15 15 15
  stencil order = 5
  estimated absolute RMS force accuracy = 0.027157966
  estimated relative force accuracy = 8.1785407e-05
  3d grid and FFT values/proc = 1728 150
Loop time of 2.94056e-06 on 27 procs for 0 steps with 1516 atoms
