group   solvent type 1 2
1500 atoms in group solvent
group   water   type 1 2
1500 atoms in group water
group   ions    type 3 4
16 atoms in group ions
group   wall    type 5 6 7
0 atoms in group wall
group   flying  type 8 9 10 11
0 atoms in group flying
group   eq_run  union solvent ions flying
1516 atoms in group eq_run

######################################################################
pair_style   lj/cut/coul/long 9.000000 9.000000
kspace_style pppm 0.0001

# LJ JC_SPCE (neq? False)
# real particles
pair_coeff  1 1     0.155354    3.169   9.0   # O O
pair_coeff  3 3     0.352644    2.1595  9.0   # Na Na
pair_coeff  4 4     0.0127851   4.8305  9.0   # Cl Cl
# flying particles
pair_coeff  8 8     0.155354    3.169   9.0   # O O
pair_coeff  10 10   0.352644    2.1595  9.0   # Na Na
pair_coeff  11 11   0.0127851   4.8305  9.0   # Cl Cl
# wall particles: not exist now
pair_coeff  * 5 0 0 9.0
pair_coeff  * 6 0 0 9.0
pair_coeff  * 7 0 0 9.0
# hydrogens
pair_coeff  * 2 0 0 9.0 # hydrogen
pair_coeff  * 9 0 0 9.0 # flying hydrogen

# intramolecular force field
bond_coeff  1   100000   1.0
angle_coeff 1   100000   109.470000

pair_modify  tail no shift yes mix arithmetic # LB mixing rule
neigh_modify delay 4 every 1 check yes page 500000 one 50000
######################################################################
fix fOHs        all    shake 0.00001 40 50000 b 1 a 1
       0 = # of size 2 clusters
       0 = # of size 3 clusters
       0 = # of size 4 clusters
     500 = # of frozen angles
  find clusters CPU = 0.001 seconds
timestep 2.000000
thermo 2000
fix  eqmd   eq_run npt temp 298.150000 298.150000 200.000000 iso 1.000000 1.000000 2000.000000
run 2000 # (neq? False) MD run
PPPM initialization ...
  G vector (1/distance) = 0.29734277
  grid = 15 15 15
  stencil order = 5
  estimated absolute RMS force accuracy = 0.02775256
  estimated relative force accuracy = 8.3576011e-05
  3d grid and FFT values/proc = 1728 150
SHAKE stats (type/ave/delta/count) on step 6000
Step Temp Atoms Density TotEng PotEng KinEng E_coul E_vdwl E_long E_bond E_angle E_dihed Enthalpy Press
6000   298.460428     1516     1.011319 -6123.151805 -7026.150457   902.998652 22610.473665  1236.996085 -30873.620206     0.000000     0.000000     0.000000 -5995.479356   562.694581
Loop time of 3.15163 on 27 procs for 2000 steps with 1516 atoms

unfix fOHs
unfix    eqmd

group   solvent type 1 2
1500 atoms in group solvent
group   water   type 1 2
1500 atoms in group water
group   ions    type 3 4
16 atoms in group ions
group   wall    type 5 6 7
0 atoms in group wall
group   flying  type 8 9 10 11
0 atoms in group flying
group   eq_run  union solvent ions flying
1516 atoms in group eq_run

######################################################################
pair_style   lj/cut/coul/long 9.000000 9.000000
kspace_style pppm 0.0001

# LJ JC_SPCE (neq? False)
# real particles
pair_coeff  1 1     0.155354    3.169   9.0   # O O
pair_coeff  3 3     0.352644    2.1595  9.0   # Na Na
pair_coeff  4 4     0.0127851   4.8305  9.0   # Cl Cl
# flying particles
pair_coeff  8 8     0.155354    3.169   9.0   # O O
pair_coeff  10 10   0.352644    2.1595  9.0   # Na Na
pair_coeff  11 11   0.0127851   4.8305  9.0   # Cl Cl
# wall particles: not exist now
pair_coeff  * 5 0 0 9.0
pair_coeff  * 6 0 0 9.0
pair_coeff  * 7 0 0 9.0
# hydrogens
pair_coeff  * 2 0 0 9.0 # hydrogen
pair_coeff  * 9 0 0 9.0 # flying hydrogen

# intramolecular force field
bond_coeff  1   100000   1.0
angle_coeff 1   100000   109.470000

pair_modify  tail no shift yes mix arithmetic # LB mixing rule
neigh_modify delay 4 every 1 check yes page 500000 one 50000
######################################################################
# shake is off; should be a dummy run
timestep 2.000000
thermo 2000
fix  eqmd   eq_run npt temp 298.150000 298.150000 200.000000 iso 1.000000 1.000000 2000.000000
run 0 # (neq? False) MD run
PPPM initialization ...
  G vector (1/distance) = 0.29772187
  grid = 15 15 15
  stencil order = 5
  estimated absolute RMS force accuracy = 0.027416549
  estimated relative force accuracy = 8.2564123e-05
  3d grid and FFT values/proc = 1728 150
Step Temp Atoms Density TotEng PotEng KinEng E_coul E_vdwl E_long E_bond E_angle E_dihed Enthalpy Press
8000   197.445140     1516     1.023715 -6119.590984 -7011.238867   891.647883 22685.955570  1221.501841 -30918.698294     0.001961     0.000055     0.000000    23.431525 27406.179571
Loop time of 2.703e-06 on 27 procs for 0 steps with 1516 atoms

unfix    eqmd
#The center (2.000000) and alpha (1.000000) of bimodal biasing function
create_atoms 10 single -10.891155 1.103108 11.051206
Created 1 atoms
create_atoms 11 single -8.851231 3.519581 11.751940
Created 1 atoms
set atom 1518 image 0 0 0
Setting atom values ...
  1 settings made for image
group   widom_test  type    10 11 # insert salt-pair
2 atoms in group widom_test
run 0 post no # temp=0.593298 unit_lj?=False velocity generated
PPPM initialization ...
  G vector (1/distance) = 0.29772187
  grid = 15 15 15
  stencil order = 5
  estimated absolute RMS force accuracy = 0.027398482
  estimated relative force accuracy = 8.2509715e-05
  3d grid and FFT values/proc = 1728 150
Step Temp Atoms Density TotEng PotEng KinEng E_coul E_vdwl E_long E_bond E_angle E_dihed Enthalpy Press
8000   197.285811     1518     1.030029 41954.268381 41062.163875   892.104506 22685.955559 49294.904583 -30918.698283     0.001961     0.000055     0.000000 240693.855239 886647.053115
Loop time of 3.28011e-06 on 27 procs for 0 steps with 1518 atoms

run 0 post no # temp=0.593298 unit_lj?=False velocity generated
PPPM initialization ...
  G vector (1/distance) = 0.29772187
  grid = 15 15 15
  stencil order = 5
  estimated absolute RMS force accuracy = 0.027398482
  estimated relative force accuracy = 8.2509715e-05
  3d grid and FFT values/proc = 1728 150
Step Temp Atoms Density TotEng PotEng KinEng E_coul E_vdwl E_long E_bond E_angle E_dihed Enthalpy Press
8000   197.736953     1518     1.030029 41956.308399 41062.163875   894.144524 22685.955559 49294.904583 -30918.698283     0.001961     0.000055     0.000000 240697.255269 886653.120606
Loop time of 2.67541e-06 on 27 procs for 0 steps with 1518 atoms

# generated_velocity_salt 1517 cation vel -0.002316 -0.002822 -0.001815
# generated_velocity_salt 1518 anion vel -0.004658 -0.000527 0.005116
set type 10 charge 1.000000
Setting atom values ...
  1 settings made for charge
set type 11 charge -1.000000
Setting atom values ...
  1 settings made for charge
run 0 post no # insert flying molecule
PPPM initialization ...
  G vector (1/distance) = 0.29772187
  grid = 15 15 15
  stencil order = 5
  estimated absolute RMS force accuracy = 0.027497247
  estimated relative force accuracy = 8.2807144e-05
  3d grid and FFT values/proc = 1728 150
Step Temp Atoms Density TotEng PotEng KinEng E_coul E_vdwl E_long E_bond E_angle E_dihed Enthalpy Press
8000   197.736953     1518     1.030029 41879.093835 40984.949311   894.144524 22688.825115 49294.904583 -30998.782402     0.001961     0.000055     0.000000 240594.173841 886537.719447
Loop time of 2.82626e-06 on 27 procs for 0 steps with 1518 atoms

group noneq_run_rigid    intersect   all         water               # select_salt no selection
1500 atoms in group noneq_run_rigid
group noneq_run_pre      subtract    all         noneq_run_rigid     # select_salt no selection
18 atoms in group noneq_run_pre
group noneq_run          subtract    noneq_run_pre   widom_test      # select_salt no selection
16 atoms in group noneq_run
group noneq_run_pre      delete
run 0 post no # mom rev random number
PPPM initialization ...
  G vector (1/distance) = 0.29772187
  grid = 15 15 15
  stencil order = 5
  estimated absolute RMS force accuracy = 0.027497247
  estimated relative force accuracy = 8.2807144e-05
  3d grid and FFT values/proc = 1728 150
Step Temp Atoms Density TotEng PotEng KinEng E_coul E_vdwl E_long E_bond E_angle E_dihed Enthalpy Press
8000   197.736953     1518     1.030029 41879.093835 40984.949311   894.144524 22688.825115 49294.904583 -30998.782402     0.001961     0.000055     0.000000 240594.173841 886537.719447
Loop time of 3.03033e-06 on 27 procs for 0 steps with 1518 atoms

######################################################################
pair_style   lj/cut/coul/long/neq 14.000000 14.000000 8000 10000 3.000000 7 1 0 1.000000 3.000000 11 1.000000
kspace_style pppm/neq 0.0001 8000 10000 3.000000 7 1 0 1.000000 3.000000 11 1.000000

# LJ JC_SPCE (neq? True)
# real particles
pair_coeff  1 1     0.155354    3.169   14.0   # O O
pair_coeff  3 3     0.352644    2.1595  14.0   # Na Na
pair_coeff  4 4     0.0127851   4.8305  14.0   # Cl Cl
# flying particles
pair_coeff  8 8     0.155354    3.169   14.0   # O O
pair_coeff  10 10   0.352644    2.1595  14.0   # Na Na
pair_coeff  11 11   0.0127851   4.8305  14.0   # Cl Cl
# wall particles: not exist now
pair_coeff  * 5 0 0 14.0
pair_coeff  * 6 0 0 14.0
pair_coeff  * 7 0 0 14.0
# hydrogens
pair_coeff  * 2 0 0 14.0 # hydrogen
pair_coeff  * 9 0 0 14.0 # flying hydrogen

# intramolecular force field
bond_coeff  1   100000   1.0
angle_coeff 1   100000   109.470000

pair_modify  tail no shift yes mix arithmetic # LB mixing rule
neigh_modify delay 2 every 1 check yes page 500000 one 50000
######################################################################
timestep 4.000000
fix  eqmd  noneq_run_rigid     rigid/nve molecule  # rigid water
  500 rigid bodies with 1500 atoms
fix  eqions  noneq_run           nve                 # nve for non-rigid
run 10000 # (neq? True) MD run
4D PPPM initialization ...
  G vector (1/distance) = 0.19356254
  grid = 10 10 10
  stencil order = 5
  estimated absolute RMS force accuracy = 0.018716538
  estimated relative force accuracy = 5.6364299e-05
  3d grid and FFT values/proc = 729 80
  update every 1 steps, delay 2 steps, check yes
Step Temp Atoms Density TotEng PotEng KinEng E_coul E_vdwl E_long E_bond E_angle E_dihed Enthalpy Press
8000   294.950111     1518     1.030029 12947.468389 12053.331898   894.136491 11881.700990  1176.115444 -1004.486552     0.001961     0.000055     0.000000 13176.555610  1022.038503
Loop time of 42.7923 on 27 procs for 10000 steps with 1518 atoms

unfix    eqmd
unfix    eqions

group   solvent type 1 2
1500 atoms in group solvent
group   water   type 1 2
1500 atoms in group water
group   ions    type 3 4
16 atoms in group ions
group   wall    type 5 6 7
0 atoms in group wall
group   flying  type 8 9 10 11
2 atoms in group flying
group   eq_run  union solvent ions flying
1518 atoms in group eq_run

######################################################################
pair_style   lj/cut/coul/long 9.000000 9.000000
kspace_style pppm 0.0001

# LJ JC_SPCE (neq? False)
# real particles
pair_coeff  1 1     0.155354    3.169   9.0   # O O
pair_coeff  3 3     0.352644    2.1595  9.0   # Na Na
pair_coeff  4 4     0.0127851   4.8305  9.0   # Cl Cl
# flying particles
pair_coeff  8 8     0.155354    3.169   9.0   # O O
pair_coeff  10 10   0.352644    2.1595  9.0   # Na Na
pair_coeff  11 11   0.0127851   4.8305  9.0   # Cl Cl
# wall particles: not exist now
pair_coeff  * 5 0 0 9.0
pair_coeff  * 6 0 0 9.0
pair_coeff  * 7 0 0 9.0
# hydrogens
pair_coeff  * 2 0 0 9.0 # hydrogen
pair_coeff  * 9 0 0 9.0 # flying hydrogen

# intramolecular force field
bond_coeff  1   100000   1.0
angle_coeff 1   100000   109.470000

pair_modify  tail no shift yes mix arithmetic # LB mixing rule
neigh_modify delay 4 every 1 check yes page 500000 one 50000
######################################################################
run 0 post no # update forcefield; return to Eq
PPPM initialization ...
  G vector (1/distance) = 0.29772187
  grid = 15 15 15
  stencil order = 5
  estimated absolute RMS force accuracy = 0.027497247
  estimated relative force accuracy = 8.2807144e-05
  3d grid and FFT values/proc = 1728 150
  update every 1 steps, delay 4 steps, check yes
Step Temp Atoms Density TotEng PotEng KinEng E_coul E_vdwl E_long E_bond E_angle E_dihed Enthalpy Press
18000   197.404305     1518     1.030029 -6286.956839 -7179.597165   892.640325 22645.268690  1196.036598 -31020.904468     0.001961     0.000055     0.000000  -279.512790 26801.316472
Loop time of 2.60119e-06 on 27 procs for 0 steps with 1518 atoms

# done post_propagate after NEMD
# selected salt 1517/1518
#The center of bimodal dist. on a positive side=2.000000
delete_atoms group widom_test compress no bond yes mol yes # reject_insert
Deleted 2 atoms, new total = 1516
Deleted 0 bonds, new total = 1000
Deleted 0 angles, new total = 500
run 0 post no # delete trial-inserted flying molecule
PPPM initialization ...
  G vector (1/distance) = 0.29772187
  grid = 15 15 15
  stencil order = 5
  estimated absolute RMS force accuracy = 0.027416549
  estimated relative force accuracy = 8.2564123e-05
  3d grid and FFT values/proc = 1728 150
Step Temp Atoms Density TotEng PotEng KinEng E_coul E_vdwl E_long E_bond E_angle E_dihed Enthalpy Press
18000   197.112053     1516     1.023715 -6027.740262 -6917.883946   890.143684 22796.502672  1177.887231 -30892.275866     0.001961     0.000055     0.000000   -30.492825 26755.825805
Loop time of 2.78119e-06 on 27 procs for 0 steps with 1516 atoms

run 0 post no # return_position back to old
PPPM initialization ...
  G vector (1/distance) = 0.29772187
  grid = 15 15 15
  stencil order = 5
  estimated absolute RMS force accuracy = 0.027416549
  estimated relative force accuracy = 8.2564123e-05
  3d grid and FFT values/proc = 1728 150
Step Temp Atoms Density TotEng PotEng KinEng E_coul E_vdwl E_long E_bond E_angle E_dihed Enthalpy Press
18000   197.445140     1516     1.023715 -6119.590983 -7011.238866   891.647883 22685.955570  1221.501841 -30918.698292     0.001961     0.000055     0.000000    23.431526 27406.179567
Loop time of 2.90774e-06 on 27 procs for 0 steps with 1516 atoms

group widom_test         delete
group noneq_run          delete
group noneq_run_rigid    delete
reset_timestep 8000

group   solvent delete
group   water   delete
group   ions    delete
group   wall    delete
group   flying  delete
group   eq_run  delete

group   solvent type 1 2
1500 atoms in group solvent
group   water   type 1 2
1500 atoms in group water
group   ions    type 3 4
16 atoms in group ions
group   wall    type 5 6 7
0 atoms in group wall
group   flying  type 8 9 10 11
0 atoms in group flying
group   eq_run  union solvent ions flying
1516 atoms in group eq_run

######################################################################
pair_style   lj/cut/coul/long 9.000000 9.000000
kspace_style pppm 0.0001

# LJ JC_SPCE (neq? False)
# real particles
pair_coeff  1 1     0.155354    3.169   9.0   # O O
pair_coeff  3 3     0.352644    2.1595  9.0   # Na Na
pair_coeff  4 4     0.0127851   4.8305  9.0   # Cl Cl
# flying particles
pair_coeff  8 8     0.155354    3.169   9.0   # O O
pair_coeff  10 10   0.352644    2.1595  9.0   # Na Na
pair_coeff  11 11   0.0127851   4.8305  9.0   # Cl Cl
# wall particles: not exist now
pair_coeff  * 5 0 0 9.0
pair_coeff  * 6 0 0 9.0
pair_coeff  * 7 0 0 9.0
# hydrogens
pair_coeff  * 2 0 0 9.0 # hydrogen
pair_coeff  * 9 0 0 9.0 # flying hydrogen

# intramolecular force field
bond_coeff  1   100000   1.0
angle_coeff 1   100000   109.470000

pair_modify  tail no shift yes mix arithmetic # LB mixing rule
neigh_modify delay 4 every 1 check yes page 500000 one 50000
######################################################################
# shake is off; should be a dummy run
timestep 2.000000
thermo 2000
fix  eqmd   eq_run npt temp 298.150000 298.150000 200.000000 iso 1.000000 1.000000 2000.000000
run 0 # (neq? False) MD run
PPPM initialization ...
  G vector (1/distance) = 0.29772187
  grid = 15 15 15
  stencil order = 5
  estimated absolute RMS force accuracy = 0.027416549
  estimated relative force accuracy = 8.2564123e-05
  3d grid and FFT values/proc = 1728 150
Step Temp Atoms Density TotEng PotEng KinEng E_coul E_vdwl E_long E_bond E_angle E_dihed Enthalpy Press
8000   197.445140     1516     1.023715 -6119.590983 -7011.238866   891.647883 22685.955570  1221.501841 -30918.698292     0.001961     0.000055     0.000000    23.431526 27406.179567
Loop time of 3.72296e-06 on 27 procs for 0 steps with 1516 atoms

unfix    eqmd
#The center (2.000000) and alpha (1.000000) of bimodal biasing function
create_atoms 10 single -12.222750 -4.782491 -4.686169
Created 1 atoms
create_atoms 11 single 12.069771 -1.984684 -5.578474
Created 1 atoms
set atom 1518 image -1 0 0
Setting atom values ...
  1 settings made for image
group   widom_test  type    10 11 # insert salt-pair
2 atoms in group widom_test
run 0 post no # temp=0.593298 unit_lj?=False velocity generated
PPPM initialization ...
  G vector (1/distance) = 0.29772187
  grid = 15 15 15
  stencil order = 5
  estimated absolute RMS force accuracy = 0.027398482
  estimated relative force accuracy = 8.2509715e-05
  3d grid and FFT values/proc = 1728 150
Step Temp Atoms Density TotEng PotEng KinEng E_coul E_vdwl E_long E_bond E_angle E_dihed Enthalpy Press
8000   197.283621     1518     1.030029 1814835.903395 1813943.808792   892.094603 22685.955559 1822176.549499 -30918.698281     0.001961     0.000055     0.000000 9105981.957947 32528361.688306
Loop time of 3.54893e-06 on 27 procs for 0 steps with 1518 atoms

run 0 post no # temp=0.593298 unit_lj?=False velocity generated
PPPM initialization ...
  G vector (1/distance) = 0.29772187
  grid = 15 15 15
  stencil order = 5
  estimated absolute RMS force accuracy = 0.027398482
  estimated relative force accuracy = 8.2509715e-05
  3d grid and FFT values/proc = 1728 150
Step Temp Atoms Density TotEng PotEng KinEng E_coul E_vdwl E_long E_bond E_angle E_dihed Enthalpy Press
8000   197.721104     1518     1.030029 1814837.881646 1813943.808792   894.072853 22685.955559 1822176.549499 -30918.698281     0.001961     0.000055     0.000000 9105985.255031 32528367.572085
Loop time of 2.97189e-06 on 27 procs for 0 steps with 1518 atoms

# generated_velocity_salt 1517 cation vel 0.003087 0.000409 -0.002562
# generated_velocity_salt 1518 anion vel -0.003572 -0.005589 -0.001642
set type 10 charge 1.000000
Setting atom values ...
  1 settings made for charge
set type 11 charge -1.000000
Setting atom values ...
  1 settings made for charge
run 0 post no # insert flying molecule
PPPM initialization ...
  G vector (1/distance) = 0.29772187
  grid = 15 15 15
  stencil order = 5
  estimated absolute RMS force accuracy = 0.027497247
  estimated relative force accuracy = 8.2807144e-05
  3d grid and FFT values/proc = 1728 150
Step Temp Atoms Density TotEng PotEng KinEng E_coul E_vdwl E_long E_bond E_angle E_dihed Enthalpy Press
8000   197.721104     1518     1.030029 1814790.582524 1813896.509671   894.072853 22725.079798 1822176.549499 -31005.121641     0.001961     0.000055     0.000000 9105922.380893 32528298.086471
Loop time of 3.10263e-06 on 27 procs for 0 steps with 1518 atoms

group noneq_run_rigid    intersect   all         water               # select_salt no selection
1500 atoms in group noneq_run_rigid
group noneq_run_pre      subtract    all         noneq_run_rigid     # select_salt no selection
18 atoms in group noneq_run_pre
group noneq_run          subtract    noneq_run_pre   widom_test      # select_salt no selection
16 atoms in group noneq_run
group noneq_run_pre      delete
run 0 post no # mom rev random number
PPPM initialization ...
  G vector (1/distance) = 0.29772187
  grid = 15 15 15
  stencil order = 5
  estimated absolute RMS force accuracy = 0.027497247
  estimated relative force accuracy = 8.2807144e-05
  3d grid and FFT values/proc = 1728 150
Step Temp Atoms Density TotEng PotEng KinEng E_coul E_vdwl E_long E_bond E_angle E_dihed Enthalpy Press
8000   197.721104     1518     1.030029 1814790.582524 1813896.509671   894.072853 22725.079798 1822176.549499 -31005.121641     0.001961     0.000055     0.000000 9105922.380893 32528298.086471
Loop time of 3.128e-06 on 27 procs for 0 steps with 1518 atoms

######################################################################
pair_style   lj/cut/coul/long/neq 14.000000 14.000000 8000 10000 3.000000 7 1 0 1.000000 3.000000 11 1.000000
kspace_style pppm/neq 0.0001 8000 10000 3.000000 7 1 0 1.000000 3.000000 11 1.000000

# LJ JC_SPCE (neq? True)
# real particles
pair_coeff  1 1     0.155354    3.169   14.0   # O O
pair_coeff  3 3     0.352644    2.1595  14.0   # Na Na
pair_coeff  4 4     0.0127851   4.8305  14.0   # Cl Cl
# flying particles
pair_coeff  8 8     0.155354    3.169   14.0   # O O
pair_coeff  10 10   0.352644    2.1595  14.0   # Na Na
pair_coeff  11 11   0.0127851   4.8305  14.0   # Cl Cl
# wall particles: not exist now
pair_coeff  * 5 0 0 14.0
pair_coeff  * 6 0 0 14.0
pair_coeff  * 7 0 0 14.0
# hydrogens
pair_coeff  * 2 0 0 14.0 # hydrogen
pair_coeff  * 9 0 0 14.0 # flying hydrogen

# intramolecular force field
bond_coeff  1   100000   1.0
angle_coeff 1   100000   109.470000

pair_modify  tail no shift yes mix arithmetic # LB mixing rule
neigh_modify delay 2 every 1 check yes page 500000 one 50000
######################################################################
timestep 4.000000
fix  eqmd  noneq_run_rigid     rigid/nve molecule  # rigid water
  500 rigid bodies with 1500 atoms
fix  eqions  noneq_run           nve                 # nve for non-rigid
run 10000 # (neq? True) MD run
4D PPPM initialization ...
  G vector (1/distance) = 0.19356254
  grid = 10 10 10
  stencil order = 5
  estimated absolute RMS force accuracy = 0.018716538
  estimated relative force accuracy = 5.6364299e-05
  3d grid and FFT values/proc = 729 80
  update every 1 steps, delay 2 steps, check yes
Step Temp Atoms Density TotEng PotEng KinEng E_coul E_vdwl E_long E_bond E_angle E_dihed Enthalpy Press
8000   294.926469     1518     1.030029 12949.198725 12055.133905   894.064820 11881.708084  1178.089091 -1004.665286     0.001961     0.000055     0.000000 13205.442723  1143.194416
Loop time of 42.8454 on 27 procs for 10000 steps with 1518 atoms

unfix    eqmd
unfix    eqions

group   solvent type 1 2
1500 atoms in group solvent
group   water   type 1 2
1500 atoms in group water
group   ions    type 3 4
16 atoms in group ions
group   wall    type 5 6 7
0 atoms in group wall
group   flying  type 8 9 10 11
2 atoms in group flying
group   eq_run  union solvent ions flying
1518 atoms in group eq_run

######################################################################
pair_style   lj/cut/coul/long 9.000000 9.000000
kspace_style pppm 0.0001

# LJ JC_SPCE (neq? False)
# real particles
pair_coeff  1 1     0.155354    3.169   9.0   # O O
pair_coeff  3 3     0.352644    2.1595  9.0   # Na Na
pair_coeff  4 4     0.0127851   4.8305  9.0   # Cl Cl
# flying particles
pair_coeff  8 8     0.155354    3.169   9.0   # O O
pair_coeff  10 10   0.352644    2.1595  9.0   # Na Na
pair_coeff  11 11   0.0127851   4.8305  9.0   # Cl Cl
# wall particles: not exist now
pair_coeff  * 5 0 0 9.0
pair_coeff  * 6 0 0 9.0
pair_coeff  * 7 0 0 9.0
# hydrogens
pair_coeff  * 2 0 0 9.0 # hydrogen
pair_coeff  * 9 0 0 9.0 # flying hydrogen

# intramolecular force field
bond_coeff  1   100000   1.0
angle_coeff 1   100000   109.470000

pair_modify  tail no shift yes mix arithmetic # LB mixing rule
neigh_modify delay 4 every 1 check yes page 500000 one 50000
######################################################################
run 0 post no # update forcefield; return to Eq
PPPM initialization ...
  G vector (1/distance) = 0.29772187
  grid = 15 15 15
  stencil order = 5
  estimated absolute RMS force accuracy = 0.027497247
  estimated relative force accuracy = 8.2807144e-05
  3d grid and FFT values/proc = 1728 150
  update every 1 steps, delay 4 steps, check yes
Step Temp Atoms Density TotEng PotEng KinEng E_coul E_vdwl E_long E_bond E_angle E_dihed Enthalpy Press
18000   195.696949     1518     1.030029 -6283.510926 -7168.430777   884.919851 22689.786694  1166.561122 -31024.780608     0.001961     0.000055     0.000000  -387.561343 26303.900525
Loop time of 4.81667e-06 on 27 procs for 0 steps with 1518 atoms

# done post_propagate after NEMD
# selected salt 1517/1518
#The center of bimodal dist. on a positive side=2.000000
delete_atoms group widom_test compress no bond yes mol yes # reject_insert
Deleted 2 atoms, new total = 1516
Deleted 0 bonds, new total = 1000
Deleted 0 angles, new total = 500
run 0 post no # delete trial-inserted flying molecule
PPPM initialization ...
  G vector (1/distance) = 0.29772187
  grid = 15 15 15
  stencil order = 5
  estimated absolute RMS force accuracy = 0.027416549
  estimated relative force accuracy = 8.2564123e-05
  3d grid and FFT values/proc = 1728 150
Step Temp Atoms Density TotEng PotEng KinEng E_coul E_vdwl E_long E_bond E_angle E_dihed Enthalpy Press
18000   195.418313     1516     1.023715 -6039.185694 -6921.680574   882.494880 22834.557075  1142.790451 -30899.030116     0.001961     0.000055     0.000000  -181.292395 26134.118085
Loop time of 4.78559e-06 on 27 procs for 0 steps with 1516 atoms

run 0 post no # return_position back to old
PPPM initialization ...
  G vector (1/distance) = 0.29772187
  grid = 15 15 15
  stencil order = 5
  estimated absolute RMS force accuracy = 0.027416549
  estimated relative force accuracy = 8.2564123e-05
  3d grid and FFT values/proc = 1728 150
Step Temp Atoms Density TotEng PotEng KinEng E_coul E_vdwl E_long E_bond E_angle E_dihed Enthalpy Press
18000   197.445140     1516     1.023715 -6119.590984 -7011.238867   891.647883 22685.955570  1221.501841 -30918.698293     0.001961     0.000055     0.000000    23.431526 27406.179574
Loop time of 2.47667e-06 on 27 procs for 0 steps with 1516 atoms

group widom_test         delete
group noneq_run          delete
group noneq_run_rigid    delete
reset_timestep 8000

group   solvent delete
group   water   delete
group   ions    delete
group   wall    delete
group   flying  delete
group   eq_run  delete

group   solvent type 1 2
1500 atoms in group solvent
group   water   type 1 2
1500 atoms in group water
group   ions    type 3 4
16 atoms in group ions
group   wall    type 5 6 7
0 atoms in group wall
group   flying  type 8 9 10 11
0 atoms in group flying
group   eq_run  union solvent ions flying
1516 atoms in group eq_run

######################################################################
pair_style   lj/cut/coul/long 9.000000 9.000000
kspace_style pppm 0.0001

# LJ JC_SPCE (neq? False)
# real particles
pair_coeff  1 1     0.155354    3.169   9.0   # O O
pair_coeff  3 3     0.352644    2.1595  9.0   # Na Na
pair_coeff  4 4     0.0127851   4.8305  9.0   # Cl Cl
# flying particles
pair_coeff  8 8     0.155354    3.169   9.0   # O O
pair_coeff  10 10   0.352644    2.1595  9.0   # Na Na
pair_coeff  11 11   0.0127851   4.8305  9.0   # Cl Cl
# wall particles: not exist now
pair_coeff  * 5 0 0 9.0
pair_coeff  * 6 0 0 9.0
pair_coeff  * 7 0 0 9.0
# hydrogens
pair_coeff  * 2 0 0 9.0 # hydrogen
pair_coeff  * 9 0 0 9.0 # flying hydrogen

# intramolecular force field
bond_coeff  1   100000   1.0
angle_coeff 1   100000   109.470000

pair_modify  tail no shift yes mix arithmetic # LB mixing rule
neigh_modify delay 4 every 1 check yes page 500000 one 50000
######################################################################
# shake is off; should be a dummy run
timestep 2.000000
thermo 2000
fix  eqmd   eq_run npt temp 298.150000 298.150000 200.000000 iso 1.000000 1.000000 2000.000000
run 0 # (neq? False) MD run
PPPM initialization ...
  G vector (1/distance) = 0.29772187
  grid = 15 15 15
  stencil order = 5
  estimated absolute RMS force accuracy = 0.027416549
  estimated relative force accuracy = 8.2564123e-05
  3d grid and FFT values/proc = 1728 150
Step Temp Atoms Density TotEng PotEng KinEng E_coul E_vdwl E_long E_bond E_angle E_dihed Enthalpy Press
8000   197.445140     1516     1.023715 -6119.590984 -7011.238867   891.647883 22685.955570  1221.501841 -30918.698293     0.001961     0.000055     0.000000    23.431526 27406.179574
Loop time of 3.2707e-06 on 27 procs for 0 steps with 1516 atoms

unfix    eqmd
#The center (2.000000) and alpha (1.000000) of bimodal biasing function
create_atoms 10 single -1.219935 -0.635477 3.696426
Created 1 atoms
create_atoms 11 single 1.158546 0.480817 2.187772
Created 1 atoms
set atom 1518 image 0 0 0
Setting atom values ...
  1 settings made for image
group   widom_test  type    10 11 # insert salt-pair
2 atoms in group widom_test
run 0 post no # temp=0.593298 unit_lj?=False velocity generated
PPPM initialization ...
  G vector (1/distance) = 0.29772187
  grid = 15 15 15
  stencil order = 5
  estimated absolute RMS force accuracy = 0.027398482
  estimated relative force accuracy = 8.2509715e-05
  3d grid and FFT values/proc = 1728 150
Step Temp Atoms Density TotEng PotEng KinEng E_coul E_vdwl E_long E_bond E_angle E_dihed Enthalpy Press
8000   197.269985     1518     1.030029 46498.289115 45606.256170   892.032945 22685.955559 53838.996878 -30918.698282     0.001961     0.000055     0.000000 263352.608033 967463.230973
Loop time of 3.09311e-06 on 27 procs for 0 steps with 1518 atoms

run 0 post no # temp=0.593298 unit_lj?=False velocity generated
PPPM initialization ...
  G vector (1/distance) = 0.29772187
  grid = 15 15 15
  stencil order = 5
  estimated absolute RMS force accuracy = 0.027398482
  estimated relative force accuracy = 8.2509715e-05
  3d grid and FFT values/proc = 1728 150
Step Temp Atoms Density TotEng PotEng KinEng E_coul E_vdwl E_long E_bond E_angle E_dihed Enthalpy Press
8000   197.490789     1518     1.030029 46499.287565 45606.256170   893.031395 22685.955559 53838.996878 -30918.698282     0.001961     0.000055     0.000000 263354.272116 967466.200596
Loop time of 2.88e-06 on 27 procs for 0 steps with 1518 atoms

# generated_velocity_salt 1517 cation vel 0.003488 -0.000920 0.001000
# generated_velocity_salt 1518 anion vel 0.001071 -0.001356 -0.004536
set type 10 charge 1.000000
Setting atom values ...
  1 settings made for charge
set type 11 charge -1.000000
Setting atom values ...
  1 settings made for charge
run 0 post no # insert flying molecule
PPPM initialization ...
  G vector (1/distance) = 0.29772187
  grid = 15 15 15
  stencil order = 5
  estimated absolute RMS force accuracy = 0.027497247
  estimated relative force accuracy = 8.2807144e-05
  3d grid and FFT values/proc = 1728 150
Step Temp Atoms Density TotEng PotEng KinEng E_coul E_vdwl E_long E_bond E_angle E_dihed Enthalpy Press
8000   197.490789     1518     1.030029 46398.072133 45505.040738   893.031395 22667.844784 53838.996878 -31001.802939     0.001961     0.000055     0.000000 263219.470405 967316.360417
Loop time of 2.76348e-06 on 27 procs for 0 steps with 1518 atoms

group noneq_run_rigid    intersect   all         water               # select_salt no selection
1500 atoms in group noneq_run_rigid
group noneq_run_pre      subtract    all         noneq_run_rigid     # select_salt no selection
18 atoms in group noneq_run_pre
group noneq_run          subtract    noneq_run_pre   widom_test      # select_salt no selection
16 atoms in group noneq_run
group noneq_run_pre      delete
run 0 post no # mom rev random number
PPPM initialization ...
  G vector (1/distance) = 0.29772187
  grid = 15 15 15
  stencil order = 5
  estimated absolute RMS force accuracy = 0.027497247
  estimated relative force accuracy = 8.2807144e-05
  3d grid and FFT values/proc = 1728 150
Step Temp Atoms Density TotEng PotEng KinEng E_coul E_vdwl E_long E_bond E_angle E_dihed Enthalpy Press
8000   197.490789     1518     1.030029 46398.072133 45505.040738   893.031395 22667.844784 53838.996878 -31001.802939     0.001961     0.000055     0.000000 263219.470405 967316.360417
Loop time of 2.66167e-06 on 27 procs for 0 steps with 1518 atoms

######################################################################
pair_style   lj/cut/coul/long/neq 14.000000 14.000000 8000 10000 3.000000 7 1 0 1.000000 3.000000 11 1.000000
kspace_style pppm/neq 0.0001 8000 10000 3.000000 7 1 0 1.000000 3.000000 11 1.000000

# LJ JC_SPCE (neq? True)
# real particles
pair_coeff  1 1     0.155354    3.169   14.0   # O O
pair_coeff  3 3     0.352644    2.1595  14.0   # Na Na
pair_coeff  4 4     0.0127851   4.8305  14.0   # Cl Cl
# flying particles
pair_coeff  8 8     0.155354    3.169   14.0   # O O
pair_coeff  10 10   0.352644    2.1595  14.0   # Na Na
pair_coeff  11 11   0.0127851   4.8305  14.0   # Cl Cl
# wall particles: not exist now
pair_coeff  * 5 0 0 14.0
pair_coeff  * 6 0 0 14.0
pair_coeff  * 7 0 0 14.0
# hydrogens
pair_coeff  * 2 0 0 14.0 # hydrogen
pair_coeff  * 9 0 0 14.0 # flying hydrogen

# intramolecular force field
bond_coeff  1   100000   1.0
angle_coeff 1   100000   109.470000

pair_modify  tail no shift yes mix arithmetic # LB mixing rule
neigh_modify delay 2 every 1 check yes page 500000 one 50000
######################################################################
timestep 4.000000
fix  eqmd  noneq_run_rigid     rigid/nve molecule  # rigid water
  500 rigid bodies with 1500 atoms
fix  eqions  noneq_run           nve                 # nve for non-rigid
run 10000 # (neq? True) MD run
4D PPPM initialization ...
  G vector (1/distance) = 0.19356254
  grid = 10 10 10
  stencil order = 5
  estimated absolute RMS force accuracy = 0.018716538
  estimated relative force accuracy = 5.6364299e-05
  3d grid and FFT values/proc = 729 80
  update every 1 steps, delay 2 steps, check yes
Step Temp Atoms Density TotEng PotEng KinEng E_coul E_vdwl E_long E_bond E_angle E_dihed Enthalpy Press
8000   294.582922     1518     1.030029 12946.677884 12053.654522   893.023362 11881.711257  1176.538930 -1004.597681     0.001961     0.000055     0.000000 13188.255372  1077.761968
Loop time of 42.95 on 27 procs for 10000 steps with 1518 atoms

unfix    eqmd
unfix    eqions

group   solvent type 1 2
1500 atoms in group solvent
group   water   type 1 2
1500 atoms in group water
group   ions    type 3 4
16 atoms in group ions
group   wall    type 5 6 7
0 atoms in group wall
group   flying  type 8 9 10 11
2 atoms in group flying
group   eq_run  union solvent ions flying
1518 atoms in group eq_run

######################################################################
pair_style   lj/cut/coul/long 9.000000 9.000000
kspace_style pppm 0.0001

# LJ JC_SPCE (neq? False)
# real particles
pair_coeff  1 1     0.155354    3.169   9.0   # O O
pair_coeff  3 3     0.352644    2.1595  9.0   # Na Na
pair_coeff  4 4     0.0127851   4.8305  9.0   # Cl Cl
# flying particles
pair_coeff  8 8     0.155354    3.169   9.0   # O O
pair_coeff  10 10   0.352644    2.1595  9.0   # Na Na
pair_coeff  11 11   0.0127851   4.8305  9.0   # Cl Cl
# wall particles: not exist now
pair_coeff  * 5 0 0 9.0
pair_coeff  * 6 0 0 9.0
pair_coeff  * 7 0 0 9.0
# hydrogens
pair_coeff  * 2 0 0 9.0 # hydrogen
pair_coeff  * 9 0 0 9.0 # flying hydrogen

# intramolecular force field
bond_coeff  1   100000   1.0
angle_coeff 1   100000   109.470000

pair_modify  tail no shift yes mix arithmetic # LB mixing rule
neigh_modify delay 4 every 1 check yes page 500000 one 50000
######################################################################
run 0 post no # update forcefield; return to Eq
PPPM initialization ...
  G vector (1/distance) = 0.29772187
  grid = 15 15 15
  stencil order = 5
  estimated absolute RMS force accuracy = 0.027497247
  estimated relative force accuracy = 8.2807144e-05
  3d grid and FFT values/proc = 1728 150
  update every 1 steps, delay 4 steps, check yes
Step Temp Atoms Density TotEng PotEng KinEng E_coul E_vdwl E_long E_bond E_angle E_dihed Enthalpy Press
18000   200.371541     1518     1.030029 -6285.388503 -7191.446341   906.057838 22533.231138  1299.462067 -31024.141562     0.001961     0.000055     0.000000   137.733419 28655.801363
Loop time of 1.02556e-05 on 27 procs for 0 steps with 1518 atoms

# done post_propagate after NEMD
# selected salt 1517/1518
#The center of bimodal dist. on a positive side=2.000000
delete_atoms group widom_test compress no bond yes mol yes # reject_insert
Deleted 2 atoms, new total = 1516
Deleted 0 bonds, new total = 1000
Deleted 0 angles, new total = 500
run 0 post no # delete trial-inserted flying molecule
PPPM initialization ...
  G vector (1/distance) = 0.29772187
  grid = 15 15 15
  stencil order = 5
  estimated absolute RMS force accuracy = 0.027416549
  estimated relative force accuracy = 8.2564123e-05
  3d grid and FFT values/proc = 1728 150
Step Temp Atoms Density TotEng PotEng KinEng E_coul E_vdwl E_long E_bond E_angle E_dihed Enthalpy Press
18000   200.329696     1516     1.023715 -6042.888101 -6947.562427   904.674326 22678.452070  1272.523499 -30898.540012     0.001961     0.000055     0.000000   331.979907 28440.523715
Loop time of 2.4577e-06 on 27 procs for 0 steps with 1516 atoms

run 0 post no # return_position back to old
PPPM initialization ...
  G vector (1/distance) = 0.29772187
  grid = 15 15 15
  stencil order = 5
  estimated absolute RMS force accuracy = 0.027416549
  estimated relative force accuracy = 8.2564123e-05
  3d grid and FFT values/proc = 1728 150
Step Temp Atoms Density TotEng PotEng KinEng E_coul E_vdwl E_long E_bond E_angle E_dihed Enthalpy Press
18000   197.445140     1516     1.023715 -6119.590985 -7011.238868   891.647883 22685.955570  1221.501841 -30918.698295     0.001961     0.000055     0.000000    23.431525 27406.179572
Loop time of 2.81159e-06 on 27 procs for 0 steps with 1516 atoms

group widom_test         delete
group noneq_run          delete
group noneq_run_rigid    delete
reset_timestep 8000

group   solvent delete
group   water   delete
group   ions    delete
group   wall    delete
group   flying  delete
group   eq_run  delete

group   solvent type 1 2
1500 atoms in group solvent
group   water   type 1 2
1500 atoms in group water
group   ions    type 3 4
16 atoms in group ions
group   wall    type 5 6 7
0 atoms in group wall
group   flying  type 8 9 10 11
0 atoms in group flying
group   eq_run  union solvent ions flying
1516 atoms in group eq_run

######################################################################
pair_style   lj/cut/coul/long 9.000000 9.000000
kspace_style pppm 0.0001

# LJ JC_SPCE (neq? False)
# real particles
pair_coeff  1 1     0.155354    3.169   9.0   # O O
pair_coeff  3 3     0.352644    2.1595  9.0   # Na Na
pair_coeff  4 4     0.0127851   4.8305  9.0   # Cl Cl
# flying particles
pair_coeff  8 8     0.155354    3.169   9.0   # O O
pair_coeff  10 10   0.352644    2.1595  9.0   # Na Na
pair_coeff  11 11   0.0127851   4.8305  9.0   # Cl Cl
# wall particles: not exist now
pair_coeff  * 5 0 0 9.0
pair_coeff  * 6 0 0 9.0
pair_coeff  * 7 0 0 9.0
# hydrogens
pair_coeff  * 2 0 0 9.0 # hydrogen
pair_coeff  * 9 0 0 9.0 # flying hydrogen

# intramolecular force field
bond_coeff  1   100000   1.0
angle_coeff 1   100000   109.470000

pair_modify  tail no shift yes mix arithmetic # LB mixing rule
neigh_modify delay 4 every 1 check yes page 500000 one 50000
######################################################################
# shake is off; should be a dummy run
timestep 2.000000
thermo 2000
fix  eqmd   eq_run npt temp 298.150000 298.150000 200.000000 iso 1.000000 1.000000 2000.000000
run 0 # (neq? False) MD run
PPPM initialization ...
  G vector (1/distance) = 0.29772187
  grid = 15 15 15
  stencil order = 5
  estimated absolute RMS force accuracy = 0.027416549
  estimated relative force accuracy = 8.2564123e-05
  3d grid and FFT values/proc = 1728 150
Step Temp Atoms Density TotEng PotEng KinEng E_coul E_vdwl E_long E_bond E_angle E_dihed Enthalpy Press
8000   197.445140     1516     1.023715 -6119.590985 -7011.238868   891.647883 22685.955570  1221.501841 -30918.698295     0.001961     0.000055     0.000000    23.431525 27406.179572
Loop time of 3.33059e-06 on 27 procs for 0 steps with 1516 atoms

unfix    eqmd
#The center (2.000000) and alpha (1.000000) of bimodal biasing function
create_atoms 10 single 10.124674 3.305661 7.140846
Created 1 atoms
create_atoms 11 single 11.543562 1.557435 8.320853
Created 1 atoms
set atom 1518 image 0 0 0
Setting atom values ...
  1 settings made for image
group   widom_test  type    10 11 # insert salt-pair
2 atoms in group widom_test
run 0 post no # temp=0.593298 unit_lj?=False velocity generated
PPPM initialization ...
  G vector (1/distance) = 0.29772187
  grid = 15 15 15
  stencil order = 5
  estimated absolute RMS force accuracy = 0.027398482
  estimated relative force accuracy = 8.2509715e-05
  3d grid and FFT values/proc = 1728 150
Step Temp Atoms Density TotEng PotEng KinEng E_coul E_vdwl E_long E_bond E_angle E_dihed Enthalpy Press
8000   197.505620     1518     1.030029 -5639.888498 -6532.986957   893.098459 22685.955559  1699.753752 -30918.698284     0.001961     0.000055     0.000000  2488.727252 36264.607944
Loop time of 3.21263e-06 on 27 procs for 0 steps with 1518 atoms

run 0 post no # temp=0.593298 unit_lj?=False velocity generated
PPPM initialization ...
  G vector (1/distance) = 0.29772187
  grid = 15 15 15
  stencil order = 5
  estimated absolute RMS force accuracy = 0.027398482
  estimated relative force accuracy = 8.2509715e-05
  3d grid and FFT values/proc = 1728 150
Step Temp Atoms Density TotEng PotEng KinEng E_coul E_vdwl E_long E_bond E_angle E_dihed Enthalpy Press
8000   197.578073     1518     1.030029 -5639.560872 -6532.986957   893.426085 22685.955559  1699.753752 -30918.698284     0.001961     0.000055     0.000000  2489.273294 36265.582379
Loop time of 3.24978e-06 on 27 procs for 0 steps with 1518 atoms

# generated_velocity_salt 1517 cation vel -0.001992 -0.001961 0.006707
# generated_velocity_salt 1518 anion vel 0.002399 0.001406 -0.000060
set type 10 charge 1.000000
Setting atom values ...
  1 settings made for charge
set type 11 charge -1.000000
Setting atom values ...
  1 settings made for charge
run 0 post no # insert flying molecule
PPPM initialization ...
  G vector (1/distance) = 0.29772187
  grid = 15 15 15
  stencil order = 5
  estimated absolute RMS force accuracy = 0.027497247
  estimated relative force accuracy = 8.2807144e-05
  3d grid and FFT values/proc = 1728 150
Step Temp Atoms Density TotEng PotEng KinEng E_coul E_vdwl E_long E_bond E_angle E_dihed Enthalpy Press
8000   197.578073     1518     1.030029 -5765.410995 -6658.837080   893.426085 22659.618734  1699.753752 -31018.211582     0.001961     0.000055     0.000000  2321.614542 36079.059407
Loop time of 2.81026e-06 on 27 procs for 0 steps with 1518 atoms

group noneq_run_rigid    intersect   all         water               # select_salt no selection
1500 atoms in group noneq_run_rigid
group noneq_run_pre      subtract    all         noneq_run_rigid     # select_salt no selection
18 atoms in group noneq_run_pre
group noneq_run          subtract    noneq_run_pre   widom_test      # select_salt no selection
16 atoms in group noneq_run
group noneq_run_pre      delete
run 0 post no # mom rev random number
PPPM initialization ...
  G vector (1/distance) = 0.29772187
  grid = 15 15 15
  stencil order = 5
  estimated absolute RMS force accuracy = 0.027497247
  estimated relative force accuracy = 8.2807144e-05
  3d grid and FFT values/proc = 1728 150
Step Temp Atoms Density TotEng PotEng KinEng E_coul E_vdwl E_long E_bond E_angle E_dihed Enthalpy Press
8000   197.578073     1518     1.030029 -5765.410995 -6658.837080   893.426085 22659.618734  1699.753752 -31018.211582     0.001961     0.000055     0.000000  2321.614542 36079.059407
Loop time of 2.88967e-06 on 27 procs for 0 steps with 1518 atoms

######################################################################
pair_style   lj/cut/coul/long/neq 14.000000 14.000000 8000 10000 3.000000 7 1 0 1.000000 3.000000 11 1.000000
kspace_style pppm/neq 0.0001 8000 10000 3.000000 7 1 0 1.000000 3.000000 11 1.000000

# LJ JC_SPCE (neq? True)
# real particles
pair_coeff  1 1     0.155354    3.169   14.0   # O O
pair_coeff  3 3     0.352644    2.1595  14.0   # Na Na
pair_coeff  4 4     0.0127851   4.8305  14.0   # Cl Cl
# flying particles
pair_coeff  8 8     0.155354    3.169   14.0   # O O
pair_coeff  10 10   0.352644    2.1595  14.0   # Na Na
pair_coeff  11 11   0.0127851   4.8305  14.0   # Cl Cl
# wall particles: not exist now
pair_coeff  * 5 0 0 14.0
pair_coeff  * 6 0 0 14.0
pair_coeff  * 7 0 0 14.0
# hydrogens
pair_coeff  * 2 0 0 14.0 # hydrogen
pair_coeff  * 9 0 0 14.0 # flying hydrogen

# intramolecular force field
bond_coeff  1   100000   1.0
angle_coeff 1   100000   109.470000

pair_modify  tail no shift yes mix arithmetic # LB mixing rule
neigh_modify delay 2 every 1 check yes page 500000 one 50000
######################################################################
timestep 4.000000
fix  eqmd  noneq_run_rigid     rigid/nve molecule  # rigid water
  500 rigid bodies with 1500 atoms
fix  eqions  noneq_run           nve                 # nve for non-rigid
run 10000 # (neq? True) MD run
4D PPPM initialization ...
  G vector (1/distance) = 0.19356254
  grid = 10 10 10
  stencil order = 5
  estimated absolute RMS force accuracy = 0.018716538
  estimated relative force accuracy = 5.6364299e-05
  3d grid and FFT values/proc = 729 80
  update every 1 steps, delay 2 steps, check yes
Step Temp Atoms Density TotEng PotEng KinEng E_coul E_vdwl E_long E_bond E_angle E_dihed Enthalpy Press
8000   294.713119     1518     1.030029 12955.372170 12061.954119   893.418051 11881.521238  1185.392412 -1004.961546     0.001961     0.000055     0.000000 13238.477417  1263.031876
Loop time of 43.1392 on 27 procs for 10000 steps with 1518 atoms

unfix    eqmd
unfix    eqions

group   solvent type 1 2
1500 atoms in group solvent
group   water   type 1 2
1500 atoms in group water
group   ions    type 3 4
16 atoms in group ions
group   wall    type 5 6 7
0 atoms in group wall
group   flying  type 8 9 10 11
2 atoms in group flying
group   eq_run  union solvent ions flying
1518 atoms in group eq_run

######################################################################
pair_style   lj/cut/coul/long 9.000000 9.000000
kspace_style pppm 0.0001

# LJ JC_SPCE (neq? False)
# real particles
pair_coeff  1 1     0.155354    3.169   9.0   # O O
pair_coeff  3 3     0.352644    2.1595  9.0   # Na Na
pair_coeff  4 4     0.0127851   4.8305  9.0   # Cl Cl
# flying particles
pair_coeff  8 8     0.155354    3.169   9.0   # O O
pair_coeff  10 10   0.352644    2.1595  9.0   # Na Na
pair_coeff  11 11   0.0127851   4.8305  9.0   # Cl Cl
# wall particles: not exist now
pair_coeff  * 5 0 0 9.0
pair_coeff  * 6 0 0 9.0
pair_coeff  * 7 0 0 9.0
# hydrogens
pair_coeff  * 2 0 0 9.0 # hydrogen
pair_coeff  * 9 0 0 9.0 # flying hydrogen

# intramolecular force field
bond_coeff  1   100000   1.0
angle_coeff 1   100000   109.470000

pair_modify  tail no shift yes mix arithmetic # LB mixing rule
neigh_modify delay 4 every 1 check yes page 500000 one 50000
######################################################################
run 0 post no # update forcefield; return to Eq
PPPM initialization ...
  G vector (1/distance) = 0.29772187
  grid = 15 15 15
  stencil order = 5
  estimated absolute RMS force accuracy = 0.027497247
  estimated relative force accuracy = 8.2807144e-05
  3d grid and FFT values/proc = 1728 150
  update every 1 steps, delay 4 steps, check yes
Step Temp Atoms Density TotEng PotEng KinEng E_coul E_vdwl E_long E_bond E_angle E_dihed Enthalpy Press
18000   193.103141     1518     1.030029 -6290.028550 -7163.219491   873.190941 22664.986185  1199.441386 -31027.649078     0.001961     0.000055     0.000000  -256.545652 26917.484917
Loop time of 5.51415e-06 on 27 procs for 0 steps with 1518 atoms

# done post_propagate after NEMD
# selected salt 1517/1518
#The center of bimodal dist. on a positive side=2.000000
delete_atoms group widom_test compress no bond yes mol yes # reject_insert
Deleted 2 atoms, new total = 1516
Deleted 0 bonds, new total = 1000
Deleted 0 angles, new total = 500
run 0 post no # delete trial-inserted flying molecule
PPPM initialization ...
  G vector (1/distance) = 0.29772187
  grid = 15 15 15
  stencil order = 5
  estimated absolute RMS force accuracy = 0.027416549
  estimated relative force accuracy = 8.2564123e-05
  3d grid and FFT values/proc = 1728 150
Step Temp Atoms Density TotEng PotEng KinEng E_coul E_vdwl E_long E_bond E_angle E_dihed Enthalpy Press
18000   192.964301     1516     1.023715 -6053.028062 -6924.440801   871.412740 22818.268766  1160.140148 -30902.851731     0.001961     0.000055     0.000000  -119.685965 26470.721653
Loop time of 3.11211e-06 on 27 procs for 0 steps with 1516 atoms

run 0 post no # return_position back to old
PPPM initialization ...
  G vector (1/distance) = 0.29772187
  grid = 15 15 15
  stencil order = 5
  estimated absolute RMS force accuracy = 0.027416549
  estimated relative force accuracy = 8.2564123e-05
  3d grid and FFT values/proc = 1728 150
Step Temp Atoms Density TotEng PotEng KinEng E_coul E_vdwl E_long E_bond E_angle E_dihed Enthalpy Press
18000   197.445140     1516     1.023715 -6119.590983 -7011.238866   891.647883 22685.955570  1221.501841 -30918.698293     0.001961     0.000055     0.000000    23.431526 27406.179570
Loop time of 6.31274e-06 on 27 procs for 0 steps with 1516 atoms

group widom_test         delete
group noneq_run          delete
group noneq_run_rigid    delete
reset_timestep 8000

group   solvent delete
group   water   delete
group   ions    delete
group   wall    delete
group   flying  delete
group   eq_run  delete

group   solvent type 1 2
1500 atoms in group solvent
group   water   type 1 2
1500 atoms in group water
group   ions    type 3 4
16 atoms in group ions
group   wall    type 5 6 7
0 atoms in group wall
group   flying  type 8 9 10 11
0 atoms in group flying
group   eq_run  union solvent ions flying
1516 atoms in group eq_run

######################################################################
pair_style   lj/cut/coul/long 9.000000 9.000000
kspace_style pppm 0.0001

# LJ JC_SPCE (neq? False)
# real particles
pair_coeff  1 1     0.155354    3.169   9.0   # O O
pair_coeff  3 3     0.352644    2.1595  9.0   # Na Na
pair_coeff  4 4     0.0127851   4.8305  9.0   # Cl Cl
# flying particles
pair_coeff  8 8     0.155354    3.169   9.0   # O O
pair_coeff  10 10   0.352644    2.1595  9.0   # Na Na
pair_coeff  11 11   0.0127851   4.8305  9.0   # Cl Cl
# wall particles: not exist now
pair_coeff  * 5 0 0 9.0
pair_coeff  * 6 0 0 9.0
pair_coeff  * 7 0 0 9.0
# hydrogens
pair_coeff  * 2 0 0 9.0 # hydrogen
pair_coeff  * 9 0 0 9.0 # flying hydrogen

# intramolecular force field
bond_coeff  1   100000   1.0
angle_coeff 1   100000   109.470000

pair_modify  tail no shift yes mix arithmetic # LB mixing rule
neigh_modify delay 4 every 1 check yes page 500000 one 50000
######################################################################
# shake is off; should be a dummy run
timestep 2.000000
thermo 2000
fix  eqmd   eq_run npt temp 298.150000 298.150000 200.000000 iso 1.000000 1.000000 2000.000000
run 0 # (neq? False) MD run
PPPM initialization ...
  G vector (1/distance) = 0.29772187
  grid = 15 15 15
  stencil order = 5
  estimated absolute RMS force accuracy = 0.027416549
  estimated relative force accuracy = 8.2564123e-05
  3d grid and FFT values/proc = 1728 150
Step Temp Atoms Density TotEng PotEng KinEng E_coul E_vdwl E_long E_bond E_angle E_dihed Enthalpy Press
8000   197.445140     1516     1.023715 -6119.590983 -7011.238866   891.647883 22685.955570  1221.501841 -30918.698293     0.001961     0.000055     0.000000    23.431526 27406.179570
Loop time of 3.10137e-06 on 27 procs for 0 steps with 1516 atoms

unfix    eqmd
#The center (2.000000) and alpha (1.000000) of bimodal biasing function
create_atoms 10 single 3.973305 -10.220372 5.428791
Created 1 atoms
create_atoms 11 single 4.769743 -7.106422 7.113735
Created 1 atoms
set atom 1518 image 0 0 0
Setting atom values ...
  1 settings made for image
group   widom_test  type    10 11 # insert salt-pair
2 atoms in group widom_test
run 0 post no # temp=0.593298 unit_lj?=False velocity generated
PPPM initialization ...
  G vector (1/distance) = 0.29772187
  grid = 15 15 15
  stencil order = 5
  estimated absolute RMS force accuracy = 0.027398482
  estimated relative force accuracy = 8.2509715e-05
  3d grid and FFT values/proc = 1728 150
Step Temp Atoms Density TotEng PotEng KinEng E_coul E_vdwl E_long E_bond E_angle E_dihed Enthalpy Press
8000   197.247599     1518     1.030029 -3081.128865 -3973.060584   891.931719 22685.955559  4259.680123 -30918.698282     0.001961     0.000055     0.000000 15337.179876 82170.539985
Loop time of 3.21304e-06 on 27 procs for 0 steps with 1518 atoms

run 0 post no # temp=0.593298 unit_lj?=False velocity generated
PPPM initialization ...
  G vector (1/distance) = 0.29772187
  grid = 15 15 15
  stencil order = 5
  estimated absolute RMS force accuracy = 0.027398482
  estimated relative force accuracy = 8.2509715e-05
  3d grid and FFT values/proc = 1728 150
Step Temp Atoms Density TotEng PotEng KinEng E_coul E_vdwl E_long E_bond E_angle E_dihed Enthalpy Press
8000   197.298777     1518     1.030029 -3080.897443 -3973.060584   892.163141 22685.955559  4259.680123 -30918.698282     0.001961     0.000055     0.000000 15337.565579 82171.228288
Loop time of 2.65959e-06 on 27 procs for 0 steps with 1518 atoms

# generated_velocity_salt 1517 cation vel -0.001612 -0.001640 0.002246
# generated_velocity_salt 1518 anion vel 0.000320 -0.000049 -0.002315
set type 10 charge 1.000000
Setting atom values ...
  1 settings made for charge
set type 11 charge -1.000000
Setting atom values ...
  1 settings made for charge
run 0 post no # insert flying molecule
PPPM initialization ...
  G vector (1/distance) = 0.29772187
  grid = 15 15 15
  stencil order = 5
  estimated absolute RMS force accuracy = 0.027497247
  estimated relative force accuracy = 8.2807144e-05
  3d grid and FFT values/proc = 1728 150
Loop time of 3.28333e-06 on 27 procs for 0 steps with 1518 atoms

group noneq_run_rigid    intersect   all         water               # select_salt no selection
1500 atoms in group noneq_run_rigid
group noneq_run_pre      subtract    all         noneq_run_rigid     # select_salt no selection
18 atoms in group noneq_run_pre
group noneq_run          subtract    noneq_run_pre   widom_test      # select_salt no selection
16 atoms in group noneq_run
group noneq_run_pre      delete
run 0 post no # mom rev random number
PPPM initialization ...
  G vector (1/distance) = 0.29772187
  grid = 15 15 15
  stencil order = 5
  estimated absolute RMS force accuracy = 0.027497247
  estimated relative force accuracy = 8.2807144e-05
  3d grid and FFT values/proc = 1728 150
Loop time of 4.18022e-06 on 27 procs for 0 steps with 1518 atoms

######################################################################
pair_style   lj/cut/coul/long/neq 14.000000 14.000000 8000 10000 3.000000 7 1 0 1.000000 3.000000 11 1.000000
kspace_style pppm/neq 0.0001 8000 10000 3.000000 7 1 0 1.000000 3.000000 11 1.000000

# LJ JC_SPCE (neq? True)
# real particles
pair_coeff  1 1     0.155354    3.169   14.0   # O O
pair_coeff  3 3     0.352644    2.1595  14.0   # Na Na
pair_coeff  4 4     0.0127851   4.8305  14.0   # Cl Cl
# flying particles
pair_coeff  8 8     0.155354    3.169   14.0   # O O
pair_coeff  10 10   0.352644    2.1595  14.0   # Na Na
pair_coeff  11 11   0.0127851   4.8305  14.0   # Cl Cl
# wall particles: not exist now
pair_coeff  * 5 0 0 14.0
pair_coeff  * 6 0 0 14.0
pair_coeff  * 7 0 0 14.0
# hydrogens
pair_coeff  * 2 0 0 14.0 # hydrogen
pair_coeff  * 9 0 0 14.0 # flying hydrogen

# intramolecular force field
bond_coeff  1   100000   1.0
angle_coeff 1   100000   109.470000

pair_modify  tail no shift yes mix arithmetic # LB mixing rule
neigh_modify delay 2 every 1 check yes page 500000 one 50000
######################################################################
timestep 4.000000
fix  eqmd  noneq_run_rigid     rigid/nve molecule  # rigid water
  500 rigid bodies with 1500 atoms
fix  eqions  noneq_run           nve                 # nve for non-rigid
run 10000 # (neq? True) MD run
4D PPPM initialization ...
  G vector (1/distance) = 0.19356254
  grid = 10 10 10
  stencil order = 5
  estimated absolute RMS force accuracy = 0.018716538
  estimated relative force accuracy = 5.6364299e-05
  3d grid and FFT values/proc = 729 80
  update every 1 steps, delay 2 steps, check yes
Loop time of 42.9491 on 27 procs for 10000 steps with 1518 atoms

unfix    eqmd
unfix    eqions

group   solvent type 1 2
1500 atoms in group solvent
group   water   type 1 2
1500 atoms in group water
group   ions    type 3 4
16 atoms in group ions
group   wall    type 5 6 7
0 atoms in group wall
group   flying  type 8 9 10 11
2 atoms in group flying
group   eq_run  union solvent ions flying
1518 atoms in group eq_run

######################################################################
pair_style   lj/cut/coul/long 9.000000 9.000000
kspace_style pppm 0.0001

# LJ JC_SPCE (neq? False)
# real particles
pair_coeff  1 1     0.155354    3.169   9.0   # O O
pair_coeff  3 3     0.352644    2.1595  9.0   # Na Na
pair_coeff  4 4     0.0127851   4.8305  9.0   # Cl Cl
# flying particles
pair_coeff  8 8     0.155354    3.169   9.0   # O O
pair_coeff  10 10   0.352644    2.1595  9.0   # Na Na
pair_coeff  11 11   0.0127851   4.8305  9.0   # Cl Cl
# wall particles: not exist now
pair_coeff  * 5 0 0 9.0
pair_coeff  * 6 0 0 9.0
pair_coeff  * 7 0 0 9.0
# hydrogens
pair_coeff  * 2 0 0 9.0 # hydrogen
pair_coeff  * 9 0 0 9.0 # flying hydrogen

# intramolecular force field
bond_coeff  1   100000   1.0
angle_coeff 1   100000   109.470000

pair_modify  tail no shift yes mix arithmetic # LB mixing rule
neigh_modify delay 4 every 1 check yes page 500000 one 50000
######################################################################
run 0 post no # update forcefield; return to Eq
PPPM initialization ...
  G vector (1/distance) = 0.29772187
  grid = 15 15 15
  stencil order = 5
  estimated absolute RMS force accuracy = 0.027497247
  estimated relative force accuracy = 8.2807144e-05
  3d grid and FFT values/proc = 1728 150
  update every 1 steps, delay 4 steps, check yes
Loop time of 4.91919e-06 on 27 procs for 0 steps with 1518 atoms

# done post_propagate after NEMD
# selected salt 1517/1518
#The center of bimodal dist. on a positive side=2.000000
delete_atoms group widom_test compress no bond yes mol yes # reject_insert
Deleted 2 atoms, new total = 1516
Deleted 0 bonds, new total = 1000
Deleted 0 angles, new total = 500
run 0 post no # delete trial-inserted flying molecule
PPPM initialization ...
  G vector (1/distance) = 0.29772187
  grid = 15 15 15
  stencil order = 5
  estimated absolute RMS force accuracy = 0.027416549
  estimated relative force accuracy = 8.2564123e-05
  3d grid and FFT values/proc = 1728 150
Loop time of 3.28796e-06 on 27 procs for 0 steps with 1516 atoms

run 0 post no # return_position back to old
PPPM initialization ...
  G vector (1/distance) = 0.29772187
  grid = 15 15 15
  stencil order = 5
  estimated absolute RMS force accuracy = 0.027416549
  estimated relative force accuracy = 8.2564123e-05
  3d grid and FFT values/proc = 1728 150
Loop time of 7.22496e-06 on 27 procs for 0 steps with 1516 atoms

group widom_test         delete
group noneq_run          delete
group noneq_run_rigid    delete
reset_timestep 8000

group   solvent delete
group   water   delete
group   ions    delete
group   wall    delete
group   flying  delete
group   eq_run  delete

log logfile_hneqMDMC.4
