group   solvent type 1 2
1500 atoms in group solvent
group   water   type 1 2
1500 atoms in group water
group   ions    type 3 4
16 atoms in group ions
group   wall    type 5 6 7
0 atoms in group wall
group   flying  type 8 9 10 11
0 atoms in group flying
group   eq_run  union solvent ions flying
1516 atoms in group eq_run

######################################################################
pair_style   lj/cut/coul/long 9.000000 9.000000
kspace_style pppm 0.0001

# LJ JC_SPCE (neq? False)
# real particles
pair_coeff  1 1     0.155354    3.169   9.0   # O O
pair_coeff  3 3     0.352644    2.1595  9.0   # Na Na
pair_coeff  4 4     0.0127851   4.8305  9.0   # Cl Cl
# flying particles
pair_coeff  8 8     0.155354    3.169   9.0   # O O
pair_coeff  10 10   0.352644    2.1595  9.0   # Na Na
pair_coeff  11 11   0.0127851   4.8305  9.0   # Cl Cl
# wall particles: not exist now
pair_coeff  * 5 0 0 9.0
pair_coeff  * 6 0 0 9.0
pair_coeff  * 7 0 0 9.0
# hydrogens
pair_coeff  * 2 0 0 9.0 # hydrogen
pair_coeff  * 9 0 0 9.0 # flying hydrogen

# intramolecular force field
bond_coeff  1   100000   1.0
angle_coeff 1   100000   109.470000

pair_modify  tail no shift yes mix arithmetic # LB mixing rule
neigh_modify delay 4 every 1 check yes page 500000 one 50000
######################################################################
fix fOHs        all    shake 0.00001 40 50000 b 1 a 1
       0 = # of size 2 clusters
       0 = # of size 3 clusters
       0 = # of size 4 clusters
     500 = # of frozen angles
  find clusters CPU = 0.002 seconds
timestep 2.000000
thermo 2000
fix  eqmd   eq_run npt temp 298.150000 298.150000 200.000000 iso 1.000000 1.000000 2000.000000
run 2000 # (neq? False) MD run
PPPM initialization ...
  G vector (1/distance) = 0.29804881
  grid = 15 15 15
  stencil order = 5
  estimated absolute RMS force accuracy = 0.027129673
  estimated relative force accuracy = 8.1700203e-05
  3d grid and FFT values/proc = 1728 150
SHAKE stats (type/ave/delta/count) on step 4000
Step Temp Atoms Density TotEng PotEng KinEng E_coul E_vdwl E_long E_bond E_angle E_dihed Enthalpy Press
4000   301.989581     1516     1.034538 -6083.555444 -6997.231625   913.676181 22760.302052  1190.543390 -30948.077067     0.000000     0.000000     0.000000 -5994.496481   401.524123
Loop time of 3.16621 on 27 procs for 2000 steps with 1516 atoms

unfix fOHs
unfix    eqmd

group   solvent type 1 2
1500 atoms in group solvent
group   water   type 1 2
1500 atoms in group water
group   ions    type 3 4
16 atoms in group ions
group   wall    type 5 6 7
0 atoms in group wall
group   flying  type 8 9 10 11
0 atoms in group flying
group   eq_run  union solvent ions flying
1516 atoms in group eq_run

######################################################################
pair_style   lj/cut/coul/long 9.000000 9.000000
kspace_style pppm 0.0001

# LJ JC_SPCE (neq? False)
# real particles
pair_coeff  1 1     0.155354    3.169   9.0   # O O
pair_coeff  3 3     0.352644    2.1595  9.0   # Na Na
pair_coeff  4 4     0.0127851   4.8305  9.0   # Cl Cl
# flying particles
pair_coeff  8 8     0.155354    3.169   9.0   # O O
pair_coeff  10 10   0.352644    2.1595  9.0   # Na Na
pair_coeff  11 11   0.0127851   4.8305  9.0   # Cl Cl
# wall particles: not exist now
pair_coeff  * 5 0 0 9.0
pair_coeff  * 6 0 0 9.0
pair_coeff  * 7 0 0 9.0
# hydrogens
pair_coeff  * 2 0 0 9.0 # hydrogen
pair_coeff  * 9 0 0 9.0 # flying hydrogen

# intramolecular force field
bond_coeff  1   100000   1.0
angle_coeff 1   100000   109.470000

pair_modify  tail no shift yes mix arithmetic # LB mixing rule
neigh_modify delay 4 every 1 check yes page 500000 one 50000
######################################################################
# shake is off; should be a dummy run
timestep 2.000000
thermo 2000
fix  eqmd   eq_run npt temp 298.150000 298.150000 200.000000 iso 1.000000 1.000000 2000.000000
run 0 # (neq? False) MD run
PPPM initialization ...
  G vector (1/distance) = 0.29734277
  grid = 15 15 15
  stencil order = 5
  estimated absolute RMS force accuracy = 0.02775256
  estimated relative force accuracy = 8.3576011e-05
  3d grid and FFT values/proc = 1728 150
Step Temp Atoms Density TotEng PotEng KinEng E_coul E_vdwl E_long E_bond E_angle E_dihed Enthalpy Press
6000   199.958637     1516     1.011319 -6123.079798 -7026.078449   902.998652 22610.473665  1236.996085 -30873.620209     0.072005     0.000005     0.000000 -1454.297188 20576.864399
Loop time of 3.14978e-06 on 27 procs for 0 steps with 1516 atoms

unfix    eqmd
#The center (2.000000) and alpha (1.000000) of bimodal biasing function
create_atoms 10 single -3.669053 -11.878314 -7.171384
Created 1 atoms
create_atoms 11 single -5.530345 -9.349673 -10.126536
Created 1 atoms
set atom 1518 image 0 0 0
Setting atom values ...
  1 settings made for image
group   widom_test  type    10 11 # insert salt-pair
2 atoms in group widom_test
run 0 post no # temp=0.593298 unit_lj?=False velocity generated
PPPM initialization ...
  G vector (1/distance) = 0.29734277
  grid = 15 15 15
  stencil order = 5
  estimated absolute RMS force accuracy = 0.027734272
  estimated relative force accuracy = 8.3520936e-05
  3d grid and FFT values/proc = 1728 150
Step Temp Atoms Density TotEng PotEng KinEng E_coul E_vdwl E_long E_bond E_angle E_dihed Enthalpy Press
6000   200.148978     1518     1.017557 25197.463209 24292.411776   905.051433 22610.473656 32555.486310 -30873.620200     0.072005     0.000005     0.000000 155533.534127 574434.040197
Loop time of 2.70919e-06 on 27 procs for 0 steps with 1518 atoms

run 0 post no # temp=0.593298 unit_lj?=False velocity generated
PPPM initialization ...
  G vector (1/distance) = 0.29734277
  grid = 15 15 15
  stencil order = 5
  estimated absolute RMS force accuracy = 0.027734272
  estimated relative force accuracy = 8.3520936e-05
  3d grid and FFT values/proc = 1728 150
Step Temp Atoms Density TotEng PotEng KinEng E_coul E_vdwl E_long E_bond E_angle E_dihed Enthalpy Press
6000   200.209481     1518     1.017557 25197.736796 24292.411776   905.325019 22610.473656 32555.486310 -30873.620200     0.072005     0.000005     0.000000 155533.990104 574434.844054
Loop time of 3.09181e-06 on 27 procs for 0 steps with 1518 atoms

# generated_velocity_salt 1517 cation vel -0.007102 0.004864 -0.000795
# generated_velocity_salt 1518 anion vel -0.000653 -0.000933 0.002272
set type 10 charge 1.000000
Setting atom values ...
  1 settings made for charge
set type 11 charge -1.000000
Setting atom values ...
  1 settings made for charge
run 0 post no # insert flying molecule
PPPM initialization ...
  G vector (1/distance) = 0.29734277
  grid = 15 15 15
  stencil order = 5
  estimated absolute RMS force accuracy = 0.027834248
  estimated relative force accuracy = 8.382201e-05
  3d grid and FFT values/proc = 1728 150
Step Temp Atoms Density TotEng PotEng KinEng E_coul E_vdwl E_long E_bond E_angle E_dihed Enthalpy Press
6000   200.209481     1518     1.017557 25323.562925 24418.237906   905.325019 22814.842322 32555.486310 -30952.162736     0.072005     0.000005     0.000000 155701.801209 574619.885684
Loop time of 2.61322e-06 on 27 procs for 0 steps with 1518 atoms

group noneq_run_rigid    intersect   all         water               # select_salt no selection
1500 atoms in group noneq_run_rigid
group noneq_run_pre      subtract    all         noneq_run_rigid     # select_salt no selection
18 atoms in group noneq_run_pre
group noneq_run          subtract    noneq_run_pre   widom_test      # select_salt no selection
16 atoms in group noneq_run
group noneq_run_pre      delete
run 0 post no # mom rev random number
PPPM initialization ...
  G vector (1/distance) = 0.29734277
  grid = 15 15 15
  stencil order = 5
  estimated absolute RMS force accuracy = 0.027834248
  estimated relative force accuracy = 8.382201e-05
  3d grid and FFT values/proc = 1728 150
Step Temp Atoms Density TotEng PotEng KinEng E_coul E_vdwl E_long E_bond E_angle E_dihed Enthalpy Press
6000   200.209481     1518     1.017557 25323.562925 24418.237906   905.325019 22814.842322 32555.486310 -30952.162736     0.072005     0.000005     0.000000 155701.801209 574619.885684
Loop time of 3.17485e-06 on 27 procs for 0 steps with 1518 atoms

######################################################################
pair_style   lj/cut/coul/long/neq 14.000000 14.000000 6000 10000 3.000000 7 1 0 1.000000 3.000000 11 1.000000
kspace_style pppm/neq 0.0001 6000 10000 3.000000 7 1 0 1.000000 3.000000 11 1.000000

# LJ JC_SPCE (neq? True)
# real particles
pair_coeff  1 1     0.155354    3.169   14.0   # O O
pair_coeff  3 3     0.352644    2.1595  14.0   # Na Na
pair_coeff  4 4     0.0127851   4.8305  14.0   # Cl Cl
# flying particles
pair_coeff  8 8     0.155354    3.169   14.0   # O O
pair_coeff  10 10   0.352644    2.1595  14.0   # Na Na
pair_coeff  11 11   0.0127851   4.8305  14.0   # Cl Cl
# wall particles: not exist now
pair_coeff  * 5 0 0 14.0
pair_coeff  * 6 0 0 14.0
pair_coeff  * 7 0 0 14.0
# hydrogens
pair_coeff  * 2 0 0 14.0 # hydrogen
pair_coeff  * 9 0 0 14.0 # flying hydrogen

# intramolecular force field
bond_coeff  1   100000   1.0
angle_coeff 1   100000   109.470000

pair_modify  tail no shift yes mix arithmetic # LB mixing rule
neigh_modify delay 2 every 1 check yes page 500000 one 50000
######################################################################
timestep 4.000000
fix  eqmd  noneq_run_rigid     rigid/nve molecule  # rigid water
  500 rigid bodies with 1500 atoms
fix  eqions  noneq_run           nve                 # nve for non-rigid
run 10000 # (neq? True) MD run
4D PPPM initialization ...
  G vector (1/distance) = 0.19332132
  grid = 10 10 10
  stencil order = 5
  estimated absolute RMS force accuracy = 0.01894638
  estimated relative force accuracy = 5.7056461e-05
  3d grid and FFT values/proc = 729 80
  update every 1 steps, delay 2 steps, check yes
Step Temp Atoms Density TotEng PotEng KinEng E_coul E_vdwl E_long E_bond E_angle E_dihed Enthalpy Press
6000   298.638086     1518     1.017557 12917.258277 12011.941750   905.316527 11824.088121  1190.933774 -1003.152155     0.072005     0.000005     0.000000 13186.848176  1188.171574
Loop time of 42.7143 on 27 procs for 10000 steps with 1518 atoms

unfix    eqmd
unfix    eqions

group   solvent type 1 2
1500 atoms in group solvent
group   water   type 1 2
1500 atoms in group water
group   ions    type 3 4
16 atoms in group ions
group   wall    type 5 6 7
0 atoms in group wall
group   flying  type 8 9 10 11
2 atoms in group flying
group   eq_run  union solvent ions flying
1518 atoms in group eq_run

######################################################################
pair_style   lj/cut/coul/long 9.000000 9.000000
kspace_style pppm 0.0001

# LJ JC_SPCE (neq? False)
# real particles
pair_coeff  1 1     0.155354    3.169   9.0   # O O
pair_coeff  3 3     0.352644    2.1595  9.0   # Na Na
pair_coeff  4 4     0.0127851   4.8305  9.0   # Cl Cl
# flying particles
pair_coeff  8 8     0.155354    3.169   9.0   # O O
pair_coeff  10 10   0.352644    2.1595  9.0   # Na Na
pair_coeff  11 11   0.0127851   4.8305  9.0   # Cl Cl
# wall particles: not exist now
pair_coeff  * 5 0 0 9.0
pair_coeff  * 6 0 0 9.0
pair_coeff  * 7 0 0 9.0
# hydrogens
pair_coeff  * 2 0 0 9.0 # hydrogen
pair_coeff  * 9 0 0 9.0 # flying hydrogen

# intramolecular force field
bond_coeff  1   100000   1.0
angle_coeff 1   100000   109.470000

pair_modify  tail no shift yes mix arithmetic # LB mixing rule
neigh_modify delay 4 every 1 check yes page 500000 one 50000
######################################################################
run 0 post no # update forcefield; return to Eq
PPPM initialization ...
  G vector (1/distance) = 0.29734277
  grid = 15 15 15
  stencil order = 5
  estimated absolute RMS force accuracy = 0.027834248
  estimated relative force accuracy = 8.382201e-05
  3d grid and FFT values/proc = 1728 150
  update every 1 steps, delay 4 steps, check yes
Step Temp Atoms Density TotEng PotEng KinEng E_coul E_vdwl E_long E_bond E_angle E_dihed Enthalpy Press
16000   193.299045     1518     1.017557 -6290.170985 -7164.247779   874.076795 22554.798542  1267.648774 -30986.767105     0.072005     0.000005     0.000000 -1510.063773 21067.508625
Loop time of 3.2067e-06 on 27 procs for 0 steps with 1518 atoms

# done post_propagate after NEMD
# selected salt 1517/1518
#The center of bimodal dist. on a positive side=2.000000
delete_atoms group widom_test compress no bond yes mol yes # reject_insert
Deleted 2 atoms, new total = 1516
Deleted 0 bonds, new total = 1000
Deleted 0 angles, new total = 500
run 0 post no # delete trial-inserted flying molecule
PPPM initialization ...
  G vector (1/distance) = 0.29734277
  grid = 15 15 15
  stencil order = 5
  estimated absolute RMS force accuracy = 0.02775256
  estimated relative force accuracy = 8.3576011e-05
  3d grid and FFT values/proc = 1728 150
Step Temp Atoms Density TotEng PotEng KinEng E_coul E_vdwl E_long E_bond E_angle E_dihed Enthalpy Press
16000   193.039078     1516     1.011319 -6009.784963 -6881.535390   871.750427 22722.308228  1241.565088 -30845.480715     0.072005     0.000005     0.000000 -1264.712935 20913.097017
Loop time of 3.26544e-06 on 27 procs for 0 steps with 1516 atoms

run 0 post no # return_position back to old
PPPM initialization ...
  G vector (1/distance) = 0.29734277
  grid = 15 15 15
  stencil order = 5
  estimated absolute RMS force accuracy = 0.02775256
  estimated relative force accuracy = 8.3576011e-05
  3d grid and FFT values/proc = 1728 150
Step Temp Atoms Density TotEng PotEng KinEng E_coul E_vdwl E_long E_bond E_angle E_dihed Enthalpy Press
16000   199.958637     1516     1.011319 -6123.079795 -7026.078446   902.998652 22610.473665  1236.996085 -30873.620206     0.072005     0.000005     0.000000 -1454.297185 20576.864398
Loop time of 3.31815e-06 on 27 procs for 0 steps with 1516 atoms

group widom_test         delete
group noneq_run          delete
group noneq_run_rigid    delete
reset_timestep 6000

group   solvent delete
group   water   delete
group   ions    delete
group   wall    delete
group   flying  delete
group   eq_run  delete

group   solvent type 1 2
1500 atoms in group solvent
group   water   type 1 2
1500 atoms in group water
group   ions    type 3 4
16 atoms in group ions
group   wall    type 5 6 7
0 atoms in group wall
group   flying  type 8 9 10 11
0 atoms in group flying
group   eq_run  union solvent ions flying
1516 atoms in group eq_run

######################################################################
pair_style   lj/cut/coul/long 9.000000 9.000000
kspace_style pppm 0.0001

# LJ JC_SPCE (neq? False)
# real particles
pair_coeff  1 1     0.155354    3.169   9.0   # O O
pair_coeff  3 3     0.352644    2.1595  9.0   # Na Na
pair_coeff  4 4     0.0127851   4.8305  9.0   # Cl Cl
# flying particles
pair_coeff  8 8     0.155354    3.169   9.0   # O O
pair_coeff  10 10   0.352644    2.1595  9.0   # Na Na
pair_coeff  11 11   0.0127851   4.8305  9.0   # Cl Cl
# wall particles: not exist now
pair_coeff  * 5 0 0 9.0
pair_coeff  * 6 0 0 9.0
pair_coeff  * 7 0 0 9.0
# hydrogens
pair_coeff  * 2 0 0 9.0 # hydrogen
pair_coeff  * 9 0 0 9.0 # flying hydrogen

# intramolecular force field
bond_coeff  1   100000   1.0
angle_coeff 1   100000   109.470000

pair_modify  tail no shift yes mix arithmetic # LB mixing rule
neigh_modify delay 4 every 1 check yes page 500000 one 50000
######################################################################
# shake is off; should be a dummy run
timestep 2.000000
thermo 2000
fix  eqmd   eq_run npt temp 298.150000 298.150000 200.000000 iso 1.000000 1.000000 2000.000000
run 0 # (neq? False) MD run
PPPM initialization ...
  G vector (1/distance) = 0.29734277
  grid = 15 15 15
  stencil order = 5
  estimated absolute RMS force accuracy = 0.02775256
  estimated relative force accuracy = 8.3576011e-05
  3d grid and FFT values/proc = 1728 150
Step Temp Atoms Density TotEng PotEng KinEng E_coul E_vdwl E_long E_bond E_angle E_dihed Enthalpy Press
6000   199.958637     1516     1.011319 -6123.079795 -7026.078446   902.998652 22610.473665  1236.996085 -30873.620206     0.072005     0.000005     0.000000 -1454.297185 20576.864398
Loop time of 3.37137e-06 on 27 procs for 0 steps with 1516 atoms

unfix    eqmd
#The center (2.000000) and alpha (1.000000) of bimodal biasing function
create_atoms 10 single -1.423298 4.362104 -1.915332
Created 1 atoms
create_atoms 11 single 0.156299 5.860272 -4.679346
Created 1 atoms
set atom 1518 image 0 0 0
Setting atom values ...
  1 settings made for image
group   widom_test  type    10 11 # insert salt-pair
2 atoms in group widom_test
run 0 post no # temp=0.593298 unit_lj?=False velocity generated
PPPM initialization ...
  G vector (1/distance) = 0.29734277
  grid = 15 15 15
  stencil order = 5
  estimated absolute RMS force accuracy = 0.027734272
  estimated relative force accuracy = 8.3520936e-05
  3d grid and FFT values/proc = 1728 150
Step Temp Atoms Density TotEng PotEng KinEng E_coul E_vdwl E_long E_bond E_angle E_dihed Enthalpy Press
6000   200.055370     1518     1.017557 -1225.397249 -2130.025393   904.628144 22610.473656  6133.049138 -30873.620197     0.072005     0.000005     0.000000 23128.149047 107334.108615
Loop time of 3.73896e-06 on 27 procs for 0 steps with 1518 atoms

run 0 post no # temp=0.593298 unit_lj?=False velocity generated
PPPM initialization ...
  G vector (1/distance) = 0.29734277
  grid = 15 15 15
  stencil order = 5
  estimated absolute RMS force accuracy = 0.027734272
  estimated relative force accuracy = 8.3520936e-05
  3d grid and FFT values/proc = 1728 150
Step Temp Atoms Density TotEng PotEng KinEng E_coul E_vdwl E_long E_bond E_angle E_dihed Enthalpy Press
6000   200.366818     1518     1.017557 -1223.988915 -2130.025393   906.036478 22610.473656  6133.049138 -30873.620197     0.072005     0.000005     0.000000 23130.496271 107338.246611
Loop time of 3.12485e-06 on 27 procs for 0 steps with 1518 atoms

# generated_velocity_salt 1517 cation vel -0.006653 0.003876 0.000149
# generated_velocity_salt 1518 anion vel -0.003290 -0.004672 0.000768
set type 10 charge 1.000000
Setting atom values ...
  1 settings made for charge
set type 11 charge -1.000000
Setting atom values ...
  1 settings made for charge
run 0 post no # insert flying molecule
PPPM initialization ...
  G vector (1/distance) = 0.29734277
  grid = 15 15 15
  stencil order = 5
  estimated absolute RMS force accuracy = 0.027834248
  estimated relative force accuracy = 8.382201e-05
  3d grid and FFT values/proc = 1728 150
Step Temp Atoms Density TotEng PotEng KinEng E_coul E_vdwl E_long E_bond E_angle E_dihed Enthalpy Press
6000   200.366818     1518     1.017557 -1392.668195 -2298.704673   906.036478 22530.664016  6133.049138 -30962.489837     0.072005     0.000005     0.000000 22905.659520 107090.742116
Loop time of 2.95485e-06 on 27 procs for 0 steps with 1518 atoms

group noneq_run_rigid    intersect   all         water               # select_salt no selection
1500 atoms in group noneq_run_rigid
group noneq_run_pre      subtract    all         noneq_run_rigid     # select_salt no selection
18 atoms in group noneq_run_pre
group noneq_run          subtract    noneq_run_pre   widom_test      # select_salt no selection
16 atoms in group noneq_run
group noneq_run_pre      delete
run 0 post no # mom rev random number
PPPM initialization ...
  G vector (1/distance) = 0.29734277
  grid = 15 15 15
  stencil order = 5
  estimated absolute RMS force accuracy = 0.027834248
  estimated relative force accuracy = 8.382201e-05
  3d grid and FFT values/proc = 1728 150
Step Temp Atoms Density TotEng PotEng KinEng E_coul E_vdwl E_long E_bond E_angle E_dihed Enthalpy Press
6000   200.366818     1518     1.017557 -1392.668195 -2298.704673   906.036478 22530.664016  6133.049138 -30962.489837     0.072005     0.000005     0.000000 22905.659520 107090.742116
Loop time of 3.14926e-06 on 27 procs for 0 steps with 1518 atoms

######################################################################
pair_style   lj/cut/coul/long/neq 14.000000 14.000000 6000 10000 3.000000 7 1 0 1.000000 3.000000 11 1.000000
kspace_style pppm/neq 0.0001 6000 10000 3.000000 7 1 0 1.000000 3.000000 11 1.000000

# LJ JC_SPCE (neq? True)
# real particles
pair_coeff  1 1     0.155354    3.169   14.0   # O O
pair_coeff  3 3     0.352644    2.1595  14.0   # Na Na
pair_coeff  4 4     0.0127851   4.8305  14.0   # Cl Cl
# flying particles
pair_coeff  8 8     0.155354    3.169   14.0   # O O
pair_coeff  10 10   0.352644    2.1595  14.0   # Na Na
pair_coeff  11 11   0.0127851   4.8305  14.0   # Cl Cl
# wall particles: not exist now
pair_coeff  * 5 0 0 14.0
pair_coeff  * 6 0 0 14.0
pair_coeff  * 7 0 0 14.0
# hydrogens
pair_coeff  * 2 0 0 14.0 # hydrogen
pair_coeff  * 9 0 0 14.0 # flying hydrogen

# intramolecular force field
bond_coeff  1   100000   1.0
angle_coeff 1   100000   109.470000

pair_modify  tail no shift yes mix arithmetic # LB mixing rule
neigh_modify delay 2 every 1 check yes page 500000 one 50000
######################################################################
timestep 4.000000
fix  eqmd  noneq_run_rigid     rigid/nve molecule  # rigid water
  500 rigid bodies with 1500 atoms
fix  eqions  noneq_run           nve                 # nve for non-rigid
run 10000 # (neq? True) MD run
4D PPPM initialization ...
  G vector (1/distance) = 0.19332132
  grid = 10 10 10
  stencil order = 5
  estimated absolute RMS force accuracy = 0.01894638
  estimated relative force accuracy = 5.7056461e-05
  3d grid and FFT values/proc = 729 80
  update every 1 steps, delay 2 steps, check yes
Step Temp Atoms Density TotEng PotEng KinEng E_coul E_vdwl E_long E_bond E_angle E_dihed Enthalpy Press
6000   298.872776     1518     1.017557 12917.991739 12011.963753   906.027986 11823.956676  1191.314851 -1003.379784     0.072005     0.000005     0.000000 13197.876973  1233.546513
Loop time of 42.7909 on 27 procs for 10000 steps with 1518 atoms

unfix    eqmd
unfix    eqions

group   solvent type 1 2
1500 atoms in group solvent
group   water   type 1 2
1500 atoms in group water
group   ions    type 3 4
16 atoms in group ions
group   wall    type 5 6 7
0 atoms in group wall
group   flying  type 8 9 10 11
2 atoms in group flying
group   eq_run  union solvent ions flying
1518 atoms in group eq_run

######################################################################
pair_style   lj/cut/coul/long 9.000000 9.000000
kspace_style pppm 0.0001

# LJ JC_SPCE (neq? False)
# real particles
pair_coeff  1 1     0.155354    3.169   9.0   # O O
pair_coeff  3 3     0.352644    2.1595  9.0   # Na Na
pair_coeff  4 4     0.0127851   4.8305  9.0   # Cl Cl
# flying particles
pair_coeff  8 8     0.155354    3.169   9.0   # O O
pair_coeff  10 10   0.352644    2.1595  9.0   # Na Na
pair_coeff  11 11   0.0127851   4.8305  9.0   # Cl Cl
# wall particles: not exist now
pair_coeff  * 5 0 0 9.0
pair_coeff  * 6 0 0 9.0
pair_coeff  * 7 0 0 9.0
# hydrogens
pair_coeff  * 2 0 0 9.0 # hydrogen
pair_coeff  * 9 0 0 9.0 # flying hydrogen

# intramolecular force field
bond_coeff  1   100000   1.0
angle_coeff 1   100000   109.470000

pair_modify  tail no shift yes mix arithmetic # LB mixing rule
neigh_modify delay 4 every 1 check yes page 500000 one 50000
######################################################################
run 0 post no # update forcefield; return to Eq
PPPM initialization ...
  G vector (1/distance) = 0.29734277
  grid = 15 15 15
  stencil order = 5
  estimated absolute RMS force accuracy = 0.027834248
  estimated relative force accuracy = 8.382201e-05
  3d grid and FFT values/proc = 1728 150
  update every 1 steps, delay 4 steps, check yes
Step Temp Atoms Density TotEng PotEng KinEng E_coul E_vdwl E_long E_bond E_angle E_dihed Enthalpy Press
16000   197.456238     1518     1.017557 -6294.459079 -7187.334241   892.875162 22647.386075  1152.827383 -30987.619709     0.072005     0.000005     0.000000 -2007.031948 18896.105057
Loop time of 2.85522e-06 on 27 procs for 0 steps with 1518 atoms

# done post_propagate after NEMD
# selected salt 1517/1518
#The center of bimodal dist. on a positive side=2.000000
delete_atoms group widom_test compress no bond yes mol yes # reject_insert
Deleted 2 atoms, new total = 1516
Deleted 0 bonds, new total = 1000
Deleted 0 angles, new total = 500
run 0 post no # delete trial-inserted flying molecule
PPPM initialization ...
  G vector (1/distance) = 0.29734277
  grid = 15 15 15
  stencil order = 5
  estimated absolute RMS force accuracy = 0.02775256
  estimated relative force accuracy = 8.3576011e-05
  3d grid and FFT values/proc = 1728 150
Step Temp Atoms Density TotEng PotEng KinEng E_coul E_vdwl E_long E_bond E_angle E_dihed Enthalpy Press
16000   197.044215     1516     1.011319 -6034.744050 -6924.581386   889.837335 22803.565483  1128.706954 -30856.925833     0.072005     0.000005     0.000000 -1782.779736 18739.808732
Loop time of 3.12119e-06 on 27 procs for 0 steps with 1516 atoms

run 0 post no # return_position back to old
PPPM initialization ...
  G vector (1/distance) = 0.29734277
  grid = 15 15 15
  stencil order = 5
  estimated absolute RMS force accuracy = 0.02775256
  estimated relative force accuracy = 8.3576011e-05
  3d grid and FFT values/proc = 1728 150
Step Temp Atoms Density TotEng PotEng KinEng E_coul E_vdwl E_long E_bond E_angle E_dihed Enthalpy Press
16000   199.958637     1516     1.011319 -6123.079794 -7026.078446   902.998652 22610.473665  1236.996085 -30873.620205     0.072005     0.000005     0.000000 -1454.297183 20576.864402
Loop time of 3.43281e-06 on 27 procs for 0 steps with 1516 atoms

group widom_test         delete
group noneq_run          delete
group noneq_run_rigid    delete
reset_timestep 6000

group   solvent delete
group   water   delete
group   ions    delete
group   wall    delete
group   flying  delete
group   eq_run  delete

group   solvent type 1 2
1500 atoms in group solvent
group   water   type 1 2
1500 atoms in group water
group   ions    type 3 4
16 atoms in group ions
group   wall    type 5 6 7
0 atoms in group wall
group   flying  type 8 9 10 11
0 atoms in group flying
group   eq_run  union solvent ions flying
1516 atoms in group eq_run

######################################################################
pair_style   lj/cut/coul/long 9.000000 9.000000
kspace_style pppm 0.0001

# LJ JC_SPCE (neq? False)
# real particles
pair_coeff  1 1     0.155354    3.169   9.0   # O O
pair_coeff  3 3     0.352644    2.1595  9.0   # Na Na
pair_coeff  4 4     0.0127851   4.8305  9.0   # Cl Cl
# flying particles
pair_coeff  8 8     0.155354    3.169   9.0   # O O
pair_coeff  10 10   0.352644    2.1595  9.0   # Na Na
pair_coeff  11 11   0.0127851   4.8305  9.0   # Cl Cl
# wall particles: not exist now
pair_coeff  * 5 0 0 9.0
pair_coeff  * 6 0 0 9.0
pair_coeff  * 7 0 0 9.0
# hydrogens
pair_coeff  * 2 0 0 9.0 # hydrogen
pair_coeff  * 9 0 0 9.0 # flying hydrogen

# intramolecular force field
bond_coeff  1   100000   1.0
angle_coeff 1   100000   109.470000

pair_modify  tail no shift yes mix arithmetic # LB mixing rule
neigh_modify delay 4 every 1 check yes page 500000 one 50000
######################################################################
# shake is off; should be a dummy run
timestep 2.000000
thermo 2000
fix  eqmd   eq_run npt temp 298.150000 298.150000 200.000000 iso 1.000000 1.000000 2000.000000
run 0 # (neq? False) MD run
PPPM initialization ...
  G vector (1/distance) = 0.29734277
  grid = 15 15 15
  stencil order = 5
  estimated absolute RMS force accuracy = 0.02775256
  estimated relative force accuracy = 8.3576011e-05
  3d grid and FFT values/proc = 1728 150
Step Temp Atoms Density TotEng PotEng KinEng E_coul E_vdwl E_long E_bond E_angle E_dihed Enthalpy Press
6000   199.958637     1516     1.011319 -6123.079794 -7026.078446   902.998652 22610.473665  1236.996085 -30873.620205     0.072005     0.000005     0.000000 -1454.297183 20576.864402
Loop time of 3.676e-06 on 27 procs for 0 steps with 1516 atoms

unfix    eqmd
#The center (2.000000) and alpha (1.000000) of bimodal biasing function
create_atoms 10 single 6.616434 -4.688527 -11.881512
Created 1 atoms
create_atoms 11 single 4.682796 -7.309301 -10.486552
Created 1 atoms
set atom 1518 image 0 0 0
Setting atom values ...
  1 settings made for image
group   widom_test  type    10 11 # insert salt-pair
2 atoms in group widom_test
run 0 post no # temp=0.593298 unit_lj?=False velocity generated
PPPM initialization ...
  G vector (1/distance) = 0.29734277
  grid = 15 15 15
  stencil order = 5
  estimated absolute RMS force accuracy = 0.027734272
  estimated relative force accuracy = 8.3520936e-05
  3d grid and FFT values/proc = 1728 150
Step Temp Atoms Density TotEng PotEng KinEng E_coul E_vdwl E_long E_bond E_angle E_dihed Enthalpy Press
6000   199.927244     1518     1.017557 1537687138.520598 1537686234.471823   904.048776 22610.473656 1537694497.546354 -30873.620196     0.072005     0.000005     0.000000 7688499764.239821 27108659346.659725
Loop time of 3.68367e-06 on 27 procs for 0 steps with 1518 atoms

run 0 post no # temp=0.593298 unit_lj?=False velocity generated
PPPM initialization ...
  G vector (1/distance) = 0.29734277
  grid = 15 15 15
  stencil order = 5
  estimated absolute RMS force accuracy = 0.027734272
  estimated relative force accuracy = 8.3520936e-05
  3d grid and FFT values/proc = 1728 150
Step Temp Atoms Density TotEng PotEng KinEng E_coul E_vdwl E_long E_bond E_angle E_dihed Enthalpy Press
6000   200.115555     1518     1.017557 1537687139.372117 1537686234.471823   904.900295 22610.473656 1537694497.546354 -30873.620196     0.072005     0.000005     0.000000 7688499765.659020 27108659349.161678
Loop time of 2.98133e-06 on 27 procs for 0 steps with 1518 atoms

# generated_velocity_salt 1517 cation vel 0.000849 -0.004746 -0.003871
# generated_velocity_salt 1518 anion vel 0.000699 0.004423 -0.000222
set type 10 charge 1.000000
Setting atom values ...
  1 settings made for charge
set type 11 charge -1.000000
Setting atom values ...
  1 settings made for charge
run 0 post no # insert flying molecule
PPPM initialization ...
  G vector (1/distance) = 0.29734277
  grid = 15 15 15
  stencil order = 5
  estimated absolute RMS force accuracy = 0.027834248
  estimated relative force accuracy = 8.382201e-05
  3d grid and FFT values/proc = 1728 150
Step Temp Atoms Density TotEng PotEng KinEng E_coul E_vdwl E_long E_bond E_angle E_dihed Enthalpy Press
6000   200.115555     1518     1.017557 1537687131.352490 1537686226.452196   904.900295 22684.907438 1537694497.546354 -30956.073605     0.072005     0.000005     0.000000 7688499755.163272 27108659338.248592
Loop time of 2.97844e-06 on 27 procs for 0 steps with 1518 atoms

group noneq_run_rigid    intersect   all         water               # select_salt no selection
1500 atoms in group noneq_run_rigid
group noneq_run_pre      subtract    all         noneq_run_rigid     # select_salt no selection
18 atoms in group noneq_run_pre
group noneq_run          subtract    noneq_run_pre   widom_test      # select_salt no selection
16 atoms in group noneq_run
group noneq_run_pre      delete
run 0 post no # mom rev random number
PPPM initialization ...
  G vector (1/distance) = 0.29734277
  grid = 15 15 15
  stencil order = 5
  estimated absolute RMS force accuracy = 0.027834248
  estimated relative force accuracy = 8.382201e-05
  3d grid and FFT values/proc = 1728 150
Step Temp Atoms Density TotEng PotEng KinEng E_coul E_vdwl E_long E_bond E_angle E_dihed Enthalpy Press
6000   200.115555     1518     1.017557 1537687131.352490 1537686226.452196   904.900295 22684.907438 1537694497.546354 -30956.073605     0.072005     0.000005     0.000000 7688499755.163272 27108659338.248592
Loop time of 2.92196e-06 on 27 procs for 0 steps with 1518 atoms

######################################################################
pair_style   lj/cut/coul/long/neq 14.000000 14.000000 6000 10000 3.000000 7 1 0 1.000000 3.000000 11 1.000000
kspace_style pppm/neq 0.0001 6000 10000 3.000000 7 1 0 1.000000 3.000000 11 1.000000

# LJ JC_SPCE (neq? True)
# real particles
pair_coeff  1 1     0.155354    3.169   14.0   # O O
pair_coeff  3 3     0.352644    2.1595  14.0   # Na Na
pair_coeff  4 4     0.0127851   4.8305  14.0   # Cl Cl
# flying particles
pair_coeff  8 8     0.155354    3.169   14.0   # O O
pair_coeff  10 10   0.352644    2.1595  14.0   # Na Na
pair_coeff  11 11   0.0127851   4.8305  14.0   # Cl Cl
# wall particles: not exist now
pair_coeff  * 5 0 0 14.0
pair_coeff  * 6 0 0 14.0
pair_coeff  * 7 0 0 14.0
# hydrogens
pair_coeff  * 2 0 0 14.0 # hydrogen
pair_coeff  * 9 0 0 14.0 # flying hydrogen

# intramolecular force field
bond_coeff  1   100000   1.0
angle_coeff 1   100000   109.470000

pair_modify  tail no shift yes mix arithmetic # LB mixing rule
neigh_modify delay 2 every 1 check yes page 500000 one 50000
######################################################################
timestep 4.000000
fix  eqmd  noneq_run_rigid     rigid/nve molecule  # rigid water
  500 rigid bodies with 1500 atoms
fix  eqions  noneq_run           nve                 # nve for non-rigid
run 10000 # (neq? True) MD run
4D PPPM initialization ...
  G vector (1/distance) = 0.19332132
  grid = 10 10 10
  stencil order = 5
  estimated absolute RMS force accuracy = 0.01894638
  estimated relative force accuracy = 5.7056461e-05
  3d grid and FFT values/proc = 729 80
  update every 1 steps, delay 2 steps, check yes
Step Temp Atoms Density TotEng PotEng KinEng E_coul E_vdwl E_long E_bond E_angle E_dihed Enthalpy Press
6000   298.497982     1518     1.017557 12920.167069 12015.275267   904.891802 11824.295539  1194.223591 -1003.315872     0.072005     0.000005     0.000000 13204.705913  1254.056505
Loop time of 42.7009 on 27 procs for 10000 steps with 1518 atoms

unfix    eqmd
unfix    eqions

group   solvent type 1 2
1500 atoms in group solvent
group   water   type 1 2
1500 atoms in group water
group   ions    type 3 4
16 atoms in group ions
group   wall    type 5 6 7
0 atoms in group wall
group   flying  type 8 9 10 11
2 atoms in group flying
group   eq_run  union solvent ions flying
1518 atoms in group eq_run

######################################################################
pair_style   lj/cut/coul/long 9.000000 9.000000
kspace_style pppm 0.0001

# LJ JC_SPCE (neq? False)
# real particles
pair_coeff  1 1     0.155354    3.169   9.0   # O O
pair_coeff  3 3     0.352644    2.1595  9.0   # Na Na
pair_coeff  4 4     0.0127851   4.8305  9.0   # Cl Cl
# flying particles
pair_coeff  8 8     0.155354    3.169   9.0   # O O
pair_coeff  10 10   0.352644    2.1595  9.0   # Na Na
pair_coeff  11 11   0.0127851   4.8305  9.0   # Cl Cl
# wall particles: not exist now
pair_coeff  * 5 0 0 9.0
pair_coeff  * 6 0 0 9.0
pair_coeff  * 7 0 0 9.0
# hydrogens
pair_coeff  * 2 0 0 9.0 # hydrogen
pair_coeff  * 9 0 0 9.0 # flying hydrogen

# intramolecular force field
bond_coeff  1   100000   1.0
angle_coeff 1   100000   109.470000

pair_modify  tail no shift yes mix arithmetic # LB mixing rule
neigh_modify delay 4 every 1 check yes page 500000 one 50000
######################################################################
run 0 post no # update forcefield; return to Eq
PPPM initialization ...
  G vector (1/distance) = 0.29734277
  grid = 15 15 15
  stencil order = 5
  estimated absolute RMS force accuracy = 0.027834248
  estimated relative force accuracy = 8.382201e-05
  3d grid and FFT values/proc = 1728 150
  update every 1 steps, delay 4 steps, check yes
Step Temp Atoms Density TotEng PotEng KinEng E_coul E_vdwl E_long E_bond E_angle E_dihed Enthalpy Press
16000   200.940336     1518     1.017557 -6285.868355 -7194.498221   908.629866 22668.912393  1121.969778 -30985.452403     0.072005     0.000005     0.000000 -2122.777020 18348.116206
Loop time of 3.33807e-06 on 27 procs for 0 steps with 1518 atoms

# done post_propagate after NEMD
# selected salt 1517/1518
#The center of bimodal dist. on a positive side=2.000000
delete_atoms group widom_test compress no bond yes mol yes # reject_insert
Deleted 2 atoms, new total = 1516
Deleted 0 bonds, new total = 1000
Deleted 0 angles, new total = 500
run 0 post no # delete trial-inserted flying molecule
PPPM initialization ...
  G vector (1/distance) = 0.29734277
  grid = 15 15 15
  stencil order = 5
  estimated absolute RMS force accuracy = 0.02775256
  estimated relative force accuracy = 8.3576011e-05
  3d grid and FFT values/proc = 1728 150
Step Temp Atoms Density TotEng PotEng KinEng E_coul E_vdwl E_long E_bond E_angle E_dihed Enthalpy Press
16000   200.784507     1516     1.011319 -6014.130688 -6920.858911   906.728223 22819.762738  1109.981511 -30850.675171     0.072005     0.000005     0.000000 -1831.469890 18434.365283
Loop time of 3.62174e-06 on 27 procs for 0 steps with 1516 atoms

run 0 post no # return_position back to old
PPPM initialization ...
  G vector (1/distance) = 0.29734277
  grid = 15 15 15
  stencil order = 5
  estimated absolute RMS force accuracy = 0.02775256
  estimated relative force accuracy = 8.3576011e-05
  3d grid and FFT values/proc = 1728 150
Step Temp Atoms Density TotEng PotEng KinEng E_coul E_vdwl E_long E_bond E_angle E_dihed Enthalpy Press
16000   199.958637     1516     1.011319 -6123.079793 -7026.078445   902.998652 22610.473665  1236.996085 -30873.620204     0.072005     0.000005     0.000000 -1454.297184 20576.864394
Loop time of 3.31537e-06 on 27 procs for 0 steps with 1516 atoms

group widom_test         delete
group noneq_run          delete
group noneq_run_rigid    delete
reset_timestep 6000

group   solvent delete
group   water   delete
group   ions    delete
group   wall    delete
group   flying  delete
group   eq_run  delete

group   solvent type 1 2
1500 atoms in group solvent
group   water   type 1 2
1500 atoms in group water
group   ions    type 3 4
16 atoms in group ions
group   wall    type 5 6 7
0 atoms in group wall
group   flying  type 8 9 10 11
0 atoms in group flying
group   eq_run  union solvent ions flying
1516 atoms in group eq_run

######################################################################
pair_style   lj/cut/coul/long 9.000000 9.000000
kspace_style pppm 0.0001

# LJ JC_SPCE (neq? False)
# real particles
pair_coeff  1 1     0.155354    3.169   9.0   # O O
pair_coeff  3 3     0.352644    2.1595  9.0   # Na Na
pair_coeff  4 4     0.0127851   4.8305  9.0   # Cl Cl
# flying particles
pair_coeff  8 8     0.155354    3.169   9.0   # O O
pair_coeff  10 10   0.352644    2.1595  9.0   # Na Na
pair_coeff  11 11   0.0127851   4.8305  9.0   # Cl Cl
# wall particles: not exist now
pair_coeff  * 5 0 0 9.0
pair_coeff  * 6 0 0 9.0
pair_coeff  * 7 0 0 9.0
# hydrogens
pair_coeff  * 2 0 0 9.0 # hydrogen
pair_coeff  * 9 0 0 9.0 # flying hydrogen

# intramolecular force field
bond_coeff  1   100000   1.0
angle_coeff 1   100000   109.470000

pair_modify  tail no shift yes mix arithmetic # LB mixing rule
neigh_modify delay 4 every 1 check yes page 500000 one 50000
######################################################################
# shake is off; should be a dummy run
timestep 2.000000
thermo 2000
fix  eqmd   eq_run npt temp 298.150000 298.150000 200.000000 iso 1.000000 1.000000 2000.000000
run 0 # (neq? False) MD run
PPPM initialization ...
  G vector (1/distance) = 0.29734277
  grid = 15 15 15
  stencil order = 5
  estimated absolute RMS force accuracy = 0.02775256
  estimated relative force accuracy = 8.3576011e-05
  3d grid and FFT values/proc = 1728 150
Step Temp Atoms Density TotEng PotEng KinEng E_coul E_vdwl E_long E_bond E_angle E_dihed Enthalpy Press
6000   199.958637     1516     1.011319 -6123.079793 -7026.078445   902.998652 22610.473665  1236.996085 -30873.620204     0.072005     0.000005     0.000000 -1454.297184 20576.864394
Loop time of 3.28996e-06 on 27 procs for 0 steps with 1516 atoms

unfix    eqmd
#The center (2.000000) and alpha (1.000000) of bimodal biasing function
create_atoms 10 single -8.135092 6.661011 -4.895836
Created 1 atoms
create_atoms 11 single -6.190301 4.040689 -3.802856
Created 1 atoms
set atom 1518 image 0 0 0
Setting atom values ...
  1 settings made for image
group   widom_test  type    10 11 # insert salt-pair
2 atoms in group widom_test
run 0 post no # temp=0.593298 unit_lj?=False velocity generated
PPPM initialization ...
  G vector (1/distance) = 0.29734277
  grid = 15 15 15
  stencil order = 5
  estimated absolute RMS force accuracy = 0.027734272
  estimated relative force accuracy = 8.3520936e-05
  3d grid and FFT values/proc = 1728 150
Step Temp Atoms Density TotEng PotEng KinEng E_coul E_vdwl E_long E_bond E_angle E_dihed Enthalpy Press
6000   199.917627     1518     1.017557 -4332.377233 -5236.382523   904.005290 22610.473656  3026.692006 -30873.620195     0.072005     0.000005     0.000000  7567.225404 52445.472474
Loop time of 2.90889e-06 on 27 procs for 0 steps with 1518 atoms

run 0 post no # temp=0.593298 unit_lj?=False velocity generated
PPPM initialization ...
  G vector (1/distance) = 0.29734277
  grid = 15 15 15
  stencil order = 5
  estimated absolute RMS force accuracy = 0.027734272
  estimated relative force accuracy = 8.3520936e-05
  3d grid and FFT values/proc = 1728 150
Step Temp Atoms Density TotEng PotEng KinEng E_coul E_vdwl E_long E_bond E_angle E_dihed Enthalpy Press
6000   200.213579     1518     1.017557 -4331.038974 -5236.382523   905.343549 22610.473656  3026.692006 -30873.620195     0.072005     0.000005     0.000000  7569.455836 52449.404575
Loop time of 3.086e-06 on 27 procs for 0 steps with 1518 atoms

# generated_velocity_salt 1517 cation vel 0.001699 -0.000097 -0.005809
# generated_velocity_salt 1518 anion vel 0.003530 0.000333 -0.004361
set type 10 charge 1.000000
Setting atom values ...
  1 settings made for charge
set type 11 charge -1.000000
Setting atom values ...
  1 settings made for charge
run 0 post no # insert flying molecule
PPPM initialization ...
  G vector (1/distance) = 0.29734277
  grid = 15 15 15
  stencil order = 5
  estimated absolute RMS force accuracy = 0.027834248
  estimated relative force accuracy = 8.382201e-05
  3d grid and FFT values/proc = 1728 150
Step Temp Atoms Density TotEng PotEng KinEng E_coul E_vdwl E_long E_bond E_angle E_dihed Enthalpy Press
6000   200.213579     1518     1.017557 -4426.865504 -5332.209053   905.343549 22593.310818  3026.692006 -30952.283887     0.072005     0.000005     0.000000  7441.769070 52308.986011
Loop time of 3.00607e-06 on 27 procs for 0 steps with 1518 atoms

group noneq_run_rigid    intersect   all         water               # select_salt no selection
1500 atoms in group noneq_run_rigid
group noneq_run_pre      subtract    all         noneq_run_rigid     # select_salt no selection
18 atoms in group noneq_run_pre
group noneq_run          subtract    noneq_run_pre   widom_test      # select_salt no selection
16 atoms in group noneq_run
group noneq_run_pre      delete
run 0 post no # mom rev random number
PPPM initialization ...
  G vector (1/distance) = 0.29734277
  grid = 15 15 15
  stencil order = 5
  estimated absolute RMS force accuracy = 0.027834248
  estimated relative force accuracy = 8.382201e-05
  3d grid and FFT values/proc = 1728 150
Step Temp Atoms Density TotEng PotEng KinEng E_coul E_vdwl E_long E_bond E_angle E_dihed Enthalpy Press
6000   200.213579     1518     1.017557 -4426.865504 -5332.209053   905.343549 22593.310818  3026.692006 -30952.283887     0.072005     0.000005     0.000000  7441.769070 52308.986011
Loop time of 3.04926e-06 on 27 procs for 0 steps with 1518 atoms

######################################################################
pair_style   lj/cut/coul/long/neq 14.000000 14.000000 6000 10000 3.000000 7 1 0 1.000000 3.000000 11 1.000000
kspace_style pppm/neq 0.0001 6000 10000 3.000000 7 1 0 1.000000 3.000000 11 1.000000

# LJ JC_SPCE (neq? True)
# real particles
pair_coeff  1 1     0.155354    3.169   14.0   # O O
pair_coeff  3 3     0.352644    2.1595  14.0   # Na Na
pair_coeff  4 4     0.0127851   4.8305  14.0   # Cl Cl
# flying particles
pair_coeff  8 8     0.155354    3.169   14.0   # O O
pair_coeff  10 10   0.352644    2.1595  14.0   # Na Na
pair_coeff  11 11   0.0127851   4.8305  14.0   # Cl Cl
# wall particles: not exist now
pair_coeff  * 5 0 0 14.0
pair_coeff  * 6 0 0 14.0
pair_coeff  * 7 0 0 14.0
# hydrogens
pair_coeff  * 2 0 0 14.0 # hydrogen
pair_coeff  * 9 0 0 14.0 # flying hydrogen

# intramolecular force field
bond_coeff  1   100000   1.0
angle_coeff 1   100000   109.470000

pair_modify  tail no shift yes mix arithmetic # LB mixing rule
neigh_modify delay 2 every 1 check yes page 500000 one 50000
######################################################################
timestep 4.000000
fix  eqmd  noneq_run_rigid     rigid/nve molecule  # rigid water
  500 rigid bodies with 1500 atoms
fix  eqions  noneq_run           nve                 # nve for non-rigid
run 10000 # (neq? True) MD run
4D PPPM initialization ...
  G vector (1/distance) = 0.19332132
  grid = 10 10 10
  stencil order = 5
  estimated absolute RMS force accuracy = 0.01894638
  estimated relative force accuracy = 5.7056461e-05
  3d grid and FFT values/proc = 729 80
  update every 1 steps, delay 2 steps, check yes
Step Temp Atoms Density TotEng PotEng KinEng E_coul E_vdwl E_long E_bond E_angle E_dihed Enthalpy Press
6000   298.644199     1518     1.017557 12917.891432 12012.556375   905.335057 11824.426970  1191.292054 -1003.234660     0.072005     0.000005     0.000000 13193.152156  1213.164773
Loop time of 42.7381 on 27 procs for 10000 steps with 1518 atoms

unfix    eqmd
unfix    eqions

group   solvent type 1 2
1500 atoms in group solvent
group   water   type 1 2
1500 atoms in group water
group   ions    type 3 4
16 atoms in group ions
group   wall    type 5 6 7
0 atoms in group wall
group   flying  type 8 9 10 11
2 atoms in group flying
group   eq_run  union solvent ions flying
1518 atoms in group eq_run

######################################################################
pair_style   lj/cut/coul/long 9.000000 9.000000
kspace_style pppm 0.0001

# LJ JC_SPCE (neq? False)
# real particles
pair_coeff  1 1     0.155354    3.169   9.0   # O O
pair_coeff  3 3     0.352644    2.1595  9.0   # Na Na
pair_coeff  4 4     0.0127851   4.8305  9.0   # Cl Cl
# flying particles
pair_coeff  8 8     0.155354    3.169   9.0   # O O
pair_coeff  10 10   0.352644    2.1595  9.0   # Na Na
pair_coeff  11 11   0.0127851   4.8305  9.0   # Cl Cl
# wall particles: not exist now
pair_coeff  * 5 0 0 9.0
pair_coeff  * 6 0 0 9.0
pair_coeff  * 7 0 0 9.0
# hydrogens
pair_coeff  * 2 0 0 9.0 # hydrogen
pair_coeff  * 9 0 0 9.0 # flying hydrogen

# intramolecular force field
bond_coeff  1   100000   1.0
angle_coeff 1   100000   109.470000

pair_modify  tail no shift yes mix arithmetic # LB mixing rule
neigh_modify delay 4 every 1 check yes page 500000 one 50000
######################################################################
run 0 post no # update forcefield; return to Eq
PPPM initialization ...
  G vector (1/distance) = 0.29734277
  grid = 15 15 15
  stencil order = 5
  estimated absolute RMS force accuracy = 0.027834248
  estimated relative force accuracy = 8.382201e-05
  3d grid and FFT values/proc = 1728 150
  update every 1 steps, delay 4 steps, check yes
Step Temp Atoms Density TotEng PotEng KinEng E_coul E_vdwl E_long E_bond E_angle E_dihed Enthalpy Press
16000   199.519983     1518     1.017557 -6290.663384 -7192.870568   902.207184 22551.930004  1242.181572 -30987.054154     0.072005     0.000005     0.000000 -1618.643407 20591.132542
Loop time of 3.081e-06 on 27 procs for 0 steps with 1518 atoms

# done post_propagate after NEMD
# selected salt 1517/1518
#The center of bimodal dist. on a positive side=2.000000
delete_atoms group widom_test compress no bond yes mol yes # reject_insert
Deleted 2 atoms, new total = 1516
Deleted 0 bonds, new total = 1000
Deleted 0 angles, new total = 500
run 0 post no # delete trial-inserted flying molecule
PPPM initialization ...
  G vector (1/distance) = 0.29734277
  grid = 15 15 15
  stencil order = 5
  estimated absolute RMS force accuracy = 0.02775256
  estimated relative force accuracy = 8.3576011e-05
  3d grid and FFT values/proc = 1728 150
Step Temp Atoms Density TotEng PotEng KinEng E_coul E_vdwl E_long E_bond E_angle E_dihed Enthalpy Press
16000   199.264125     1516     1.011319 -6015.236626 -6915.098912   899.862286 22723.292570  1213.688920 -30852.152413     0.072005     0.000005     0.000000 -1390.358182 20383.364263
Loop time of 3.07611e-06 on 27 procs for 0 steps with 1516 atoms

run 0 post no # return_position back to old
PPPM initialization ...
  G vector (1/distance) = 0.29734277
  grid = 15 15 15
  stencil order = 5
  estimated absolute RMS force accuracy = 0.02775256
  estimated relative force accuracy = 8.3576011e-05
  3d grid and FFT values/proc = 1728 150
Step Temp Atoms Density TotEng PotEng KinEng E_coul E_vdwl E_long E_bond E_angle E_dihed Enthalpy Press
16000   199.958637     1516     1.011319 -6123.079794 -7026.078446   902.998652 22610.473665  1236.996085 -30873.620205     0.072005     0.000005     0.000000 -1454.297184 20576.864399
Loop time of 2.75807e-06 on 27 procs for 0 steps with 1516 atoms

group widom_test         delete
group noneq_run          delete
group noneq_run_rigid    delete
reset_timestep 6000

group   solvent delete
group   water   delete
group   ions    delete
group   wall    delete
group   flying  delete
group   eq_run  delete

group   solvent type 1 2
1500 atoms in group solvent
group   water   type 1 2
1500 atoms in group water
group   ions    type 3 4
16 atoms in group ions
group   wall    type 5 6 7
0 atoms in group wall
group   flying  type 8 9 10 11
0 atoms in group flying
group   eq_run  union solvent ions flying
1516 atoms in group eq_run

######################################################################
pair_style   lj/cut/coul/long 9.000000 9.000000
kspace_style pppm 0.0001

# LJ JC_SPCE (neq? False)
# real particles
pair_coeff  1 1     0.155354    3.169   9.0   # O O
pair_coeff  3 3     0.352644    2.1595  9.0   # Na Na
pair_coeff  4 4     0.0127851   4.8305  9.0   # Cl Cl
# flying particles
pair_coeff  8 8     0.155354    3.169   9.0   # O O
pair_coeff  10 10   0.352644    2.1595  9.0   # Na Na
pair_coeff  11 11   0.0127851   4.8305  9.0   # Cl Cl
# wall particles: not exist now
pair_coeff  * 5 0 0 9.0
pair_coeff  * 6 0 0 9.0
pair_coeff  * 7 0 0 9.0
# hydrogens
pair_coeff  * 2 0 0 9.0 # hydrogen
pair_coeff  * 9 0 0 9.0 # flying hydrogen

# intramolecular force field
bond_coeff  1   100000   1.0
angle_coeff 1   100000   109.470000

pair_modify  tail no shift yes mix arithmetic # LB mixing rule
neigh_modify delay 4 every 1 check yes page 500000 one 50000
######################################################################
# shake is off; should be a dummy run
timestep 2.000000
thermo 2000
fix  eqmd   eq_run npt temp 298.150000 298.150000 200.000000 iso 1.000000 1.000000 2000.000000
run 0 # (neq? False) MD run
PPPM initialization ...
  G vector (1/distance) = 0.29734277
  grid = 15 15 15
  stencil order = 5
  estimated absolute RMS force accuracy = 0.02775256
  estimated relative force accuracy = 8.3576011e-05
  3d grid and FFT values/proc = 1728 150
Step Temp Atoms Density TotEng PotEng KinEng E_coul E_vdwl E_long E_bond E_angle E_dihed Enthalpy Press
6000   199.958637     1516     1.011319 -6123.079794 -7026.078446   902.998652 22610.473665  1236.996085 -30873.620205     0.072005     0.000005     0.000000 -1454.297184 20576.864399
Loop time of 3.48781e-06 on 27 procs for 0 steps with 1516 atoms

unfix    eqmd
#The center (2.000000) and alpha (1.000000) of bimodal biasing function
create_atoms 10 single 1.213680 -4.666946 6.619045
Created 1 atoms
create_atoms 11 single -0.704525 -6.722643 5.223811
Created 1 atoms
set atom 1518 image 0 0 0
Setting atom values ...
  1 settings made for image
group   widom_test  type    10 11 # insert salt-pair
2 atoms in group widom_test
run 0 post no # temp=0.593298 unit_lj?=False velocity generated
PPPM initialization ...
  G vector (1/distance) = 0.29734277
  grid = 15 15 15
  stencil order = 5
  estimated absolute RMS force accuracy = 0.027734272
  estimated relative force accuracy = 8.3520936e-05
  3d grid and FFT values/proc = 1728 150
Step Temp Atoms Density TotEng PotEng KinEng E_coul E_vdwl E_long E_bond E_angle E_dihed Enthalpy Press
6000   199.702699     1518     1.017557 8097454.397613 8096551.364207   903.033406 22610.473656 8104814.438737 -30873.620196     0.072005     0.000005     0.000000 40522053.561146 142905899.864480
Loop time of 3.386e-06 on 27 procs for 0 steps with 1518 atoms

run 0 post no # temp=0.593298 unit_lj?=False velocity generated
PPPM initialization ...
  G vector (1/distance) = 0.29734277
  grid = 15 15 15
  stencil order = 5
  estimated absolute RMS force accuracy = 0.027734272
  estimated relative force accuracy = 8.3520936e-05
  3d grid and FFT values/proc = 1728 150
Step Temp Atoms Density TotEng PotEng KinEng E_coul E_vdwl E_long E_bond E_angle E_dihed Enthalpy Press
6000   200.025850     1518     1.017557 8097455.858867 8096551.364207   904.494660 22610.473656 8104814.438737 -30873.620196     0.072005     0.000005     0.000000 40522055.996570 142905904.157967
Loop time of 3.2503e-06 on 27 procs for 0 steps with 1518 atoms

# generated_velocity_salt 1517 cation vel -0.001018 -0.000225 0.000423
# generated_velocity_salt 1518 anion vel 0.000204 -0.002659 0.005232
set type 10 charge 1.000000
Setting atom values ...
  1 settings made for charge
set type 11 charge -1.000000
Setting atom values ...
  1 settings made for charge
run 0 post no # insert flying molecule
PPPM initialization ...
  G vector (1/distance) = 0.29734277
  grid = 15 15 15
  stencil order = 5
  estimated absolute RMS force accuracy = 0.027834248
  estimated relative force accuracy = 8.382201e-05
  3d grid and FFT values/proc = 1728 150
Loop time of 3.0007e-06 on 27 procs for 0 steps with 1518 atoms

group noneq_run_rigid    intersect   all         water               # select_salt no selection
1500 atoms in group noneq_run_rigid
group noneq_run_pre      subtract    all         noneq_run_rigid     # select_salt no selection
18 atoms in group noneq_run_pre
group noneq_run          subtract    noneq_run_pre   widom_test      # select_salt no selection
16 atoms in group noneq_run
group noneq_run_pre      delete
run 0 post no # mom rev random number
PPPM initialization ...
  G vector (1/distance) = 0.29734277
  grid = 15 15 15
  stencil order = 5
  estimated absolute RMS force accuracy = 0.027834248
  estimated relative force accuracy = 8.382201e-05
  3d grid and FFT values/proc = 1728 150
Loop time of 3.00881e-06 on 27 procs for 0 steps with 1518 atoms

######################################################################
pair_style   lj/cut/coul/long/neq 14.000000 14.000000 6000 10000 3.000000 7 1 0 1.000000 3.000000 11 1.000000
kspace_style pppm/neq 0.0001 6000 10000 3.000000 7 1 0 1.000000 3.000000 11 1.000000

# LJ JC_SPCE (neq? True)
# real particles
pair_coeff  1 1     0.155354    3.169   14.0   # O O
pair_coeff  3 3     0.352644    2.1595  14.0   # Na Na
pair_coeff  4 4     0.0127851   4.8305  14.0   # Cl Cl
# flying particles
pair_coeff  8 8     0.155354    3.169   14.0   # O O
pair_coeff  10 10   0.352644    2.1595  14.0   # Na Na
pair_coeff  11 11   0.0127851   4.8305  14.0   # Cl Cl
# wall particles: not exist now
pair_coeff  * 5 0 0 14.0
pair_coeff  * 6 0 0 14.0
pair_coeff  * 7 0 0 14.0
# hydrogens
pair_coeff  * 2 0 0 14.0 # hydrogen
pair_coeff  * 9 0 0 14.0 # flying hydrogen

# intramolecular force field
bond_coeff  1   100000   1.0
angle_coeff 1   100000   109.470000

pair_modify  tail no shift yes mix arithmetic # LB mixing rule
neigh_modify delay 2 every 1 check yes page 500000 one 50000
######################################################################
timestep 4.000000
fix  eqmd  noneq_run_rigid     rigid/nve molecule  # rigid water
  500 rigid bodies with 1500 atoms
fix  eqions  noneq_run           nve                 # nve for non-rigid
run 10000 # (neq? True) MD run
4D PPPM initialization ...
  G vector (1/distance) = 0.19332132
  grid = 10 10 10
  stencil order = 5
  estimated absolute RMS force accuracy = 0.01894638
  estimated relative force accuracy = 5.7056461e-05
  3d grid and FFT values/proc = 729 80
  update every 1 steps, delay 2 steps, check yes
Loop time of 42.7895 on 27 procs for 10000 steps with 1518 atoms

unfix    eqmd
unfix    eqions

group   solvent type 1 2
1500 atoms in group solvent
group   water   type 1 2
1500 atoms in group water
group   ions    type 3 4
16 atoms in group ions
group   wall    type 5 6 7
0 atoms in group wall
group   flying  type 8 9 10 11
2 atoms in group flying
group   eq_run  union solvent ions flying
1518 atoms in group eq_run

######################################################################
pair_style   lj/cut/coul/long 9.000000 9.000000
kspace_style pppm 0.0001

# LJ JC_SPCE (neq? False)
# real particles
pair_coeff  1 1     0.155354    3.169   9.0   # O O
pair_coeff  3 3     0.352644    2.1595  9.0   # Na Na
pair_coeff  4 4     0.0127851   4.8305  9.0   # Cl Cl
# flying particles
pair_coeff  8 8     0.155354    3.169   9.0   # O O
pair_coeff  10 10   0.352644    2.1595  9.0   # Na Na
pair_coeff  11 11   0.0127851   4.8305  9.0   # Cl Cl
# wall particles: not exist now
pair_coeff  * 5 0 0 9.0
pair_coeff  * 6 0 0 9.0
pair_coeff  * 7 0 0 9.0
# hydrogens
pair_coeff  * 2 0 0 9.0 # hydrogen
pair_coeff  * 9 0 0 9.0 # flying hydrogen

# intramolecular force field
bond_coeff  1   100000   1.0
angle_coeff 1   100000   109.470000

pair_modify  tail no shift yes mix arithmetic # LB mixing rule
neigh_modify delay 4 every 1 check yes page 500000 one 50000
######################################################################
run 0 post no # update forcefield; return to Eq
PPPM initialization ...
  G vector (1/distance) = 0.29734277
  grid = 15 15 15
  stencil order = 5
  estimated absolute RMS force accuracy = 0.027834248
  estimated relative force accuracy = 8.382201e-05
  3d grid and FFT values/proc = 1728 150
  update every 1 steps, delay 4 steps, check yes
Loop time of 3.05407e-06 on 27 procs for 0 steps with 1518 atoms

# done post_propagate after NEMD
# selected salt 1517/1518
#The center of bimodal dist. on a positive side=2.000000
delete_atoms group widom_test compress no bond yes mol yes # reject_insert
Deleted 2 atoms, new total = 1516
Deleted 0 bonds, new total = 1000
Deleted 0 angles, new total = 500
run 0 post no # delete trial-inserted flying molecule
PPPM initialization ...
  G vector (1/distance) = 0.29734277
  grid = 15 15 15
  stencil order = 5
  estimated absolute RMS force accuracy = 0.02775256
  estimated relative force accuracy = 8.3576011e-05
  3d grid and FFT values/proc = 1728 150
Loop time of 2.99796e-06 on 27 procs for 0 steps with 1516 atoms

run 0 post no # return_position back to old
PPPM initialization ...
  G vector (1/distance) = 0.29734277
  grid = 15 15 15
  stencil order = 5
  estimated absolute RMS force accuracy = 0.02775256
  estimated relative force accuracy = 8.3576011e-05
  3d grid and FFT values/proc = 1728 150
Loop time of 2.84015e-06 on 27 procs for 0 steps with 1516 atoms

group widom_test         delete
group noneq_run          delete
group noneq_run_rigid    delete
reset_timestep 6000

group   solvent delete
group   water   delete
group   ions    delete
group   wall    delete
group   flying  delete
group   eq_run  delete

log logfile_hneqMDMC.3
