group   solvent type 1 2
1500 atoms in group solvent
group   water   type 1 2
1500 atoms in group water
group   ions    type 3 4
18 atoms in group ions
group   wall    type 5 6 7
0 atoms in group wall
group   flying  type 8 9 10 11
0 atoms in group flying
group   eq_run  union solvent ions flying
1518 atoms in group eq_run

######################################################################
pair_style   lj/cut/coul/long 9.000000 9.000000
kspace_style pppm 0.0001

# LJ JC_SPCE (neq? False)
# real particles
pair_coeff  1 1     0.155354    3.169   9.0   # O O
pair_coeff  3 3     0.352644    2.1595  9.0   # Na Na
pair_coeff  4 4     0.0127851   4.8305  9.0   # Cl Cl
# flying particles
pair_coeff  8 8     0.155354    3.169   9.0   # O O
pair_coeff  10 10   0.352644    2.1595  9.0   # Na Na
pair_coeff  11 11   0.0127851   4.8305  9.0   # Cl Cl
# wall particles: not exist now
pair_coeff  * 5 0 0 9.0
pair_coeff  * 6 0 0 9.0
pair_coeff  * 7 0 0 9.0
# hydrogens
pair_coeff  * 2 0 0 9.0 # hydrogen
pair_coeff  * 9 0 0 9.0 # flying hydrogen

# intramolecular force field
bond_coeff  1   100000   1.0
angle_coeff 1   100000   109.470000

pair_modify  tail no shift yes mix arithmetic # LB mixing rule
neigh_modify delay 5 every 1 check yes page 500000 one 50000
######################################################################
fix fOHs        all    shake 0.00001 40 50000 b 1 a 1
       0 = # of size 2 clusters
       0 = # of size 3 clusters
       0 = # of size 4 clusters
     500 = # of frozen angles
  find clusters CPU = 0.001 seconds
timestep 2.000000
thermo 2000
fix  eqmd   eq_run npt temp 298.150000 298.150000 200.000000 iso 1.000000 1.000000 2000.000000
run 1000 # (neq? False) MD run
PPPM initialization ...
  G vector (1/distance) = 0.29783477
  grid = 15 15 15
  stencil order = 5
  estimated absolute RMS force accuracy = 0.027397586
  estimated relative force accuracy = 8.2507017e-05
  3d grid and FFT values/proc = 1728 150
SHAKE stats (type/ave/delta/count) on step 1000
Step Temp Atoms Density TotEng PotEng KinEng E_coul E_vdwl E_long E_bond E_angle E_dihed Enthalpy Press
1000   311.766441     1518     1.033775 -6286.206691 -7231.321613   945.114922 22574.219192  1234.693661 -31040.234466     0.000000     0.000000     0.000000 -6123.100217   730.322051
Loop time of 1.54483 on 27 procs for 1000 steps with 1518 atoms

unfix fOHs
unfix    eqmd

group   solvent type 1 2
1500 atoms in group solvent
group   water   type 1 2
1500 atoms in group water
group   ions    type 3 4
18 atoms in group ions
group   wall    type 5 6 7
0 atoms in group wall
group   flying  type 8 9 10 11
0 atoms in group flying
group   eq_run  union solvent ions flying
1518 atoms in group eq_run

######################################################################
pair_style   lj/cut/coul/long 9.000000 9.000000
kspace_style pppm 0.0001

# LJ JC_SPCE (neq? False)
# real particles
pair_coeff  1 1     0.155354    3.169   9.0   # O O
pair_coeff  3 3     0.352644    2.1595  9.0   # Na Na
pair_coeff  4 4     0.0127851   4.8305  9.0   # Cl Cl
# flying particles
pair_coeff  8 8     0.155354    3.169   9.0   # O O
pair_coeff  10 10   0.352644    2.1595  9.0   # Na Na
pair_coeff  11 11   0.0127851   4.8305  9.0   # Cl Cl
# wall particles: not exist now
pair_coeff  * 5 0 0 9.0
pair_coeff  * 6 0 0 9.0
pair_coeff  * 7 0 0 9.0
# hydrogens
pair_coeff  * 2 0 0 9.0 # hydrogen
pair_coeff  * 9 0 0 9.0 # flying hydrogen

# intramolecular force field
bond_coeff  1   100000   1.0
angle_coeff 1   100000   109.470000

pair_modify  tail no shift yes mix arithmetic # LB mixing rule
neigh_modify delay 5 every 1 check yes page 500000 one 50000
######################################################################
# shake is off; should be a dummy run
timestep 2.000000
thermo 2000
fix  eqmd   eq_run npt temp 298.150000 298.150000 200.000000 iso 1.000000 1.000000 2000.000000
run 0 # (neq? False) MD run
PPPM initialization ...
  G vector (1/distance) = 0.2976179
  grid = 15 15 15
  stencil order = 5
  estimated absolute RMS force accuracy = 0.027589305
  estimated relative force accuracy = 8.3084373e-05
  3d grid and FFT values/proc = 1728 150
Step Temp Atoms Density TotEng PotEng KinEng E_coul E_vdwl E_long E_bond E_angle E_dihed Enthalpy Press
2000   209.687668     1518     1.026592 -6271.458102 -7219.642429   948.184327 22569.478834  1220.646496 -31009.774399     0.006604     0.000036     0.000000  -387.282852 26163.776418
Loop time of 3.26874e-06 on 27 procs for 0 steps with 1518 atoms

unfix    eqmd
#The center (4.000000) and alpha (0.100000) of bimodal biasing function
create_atoms 10 single 9.758267 12.384407 -2.355850
Created 1 atoms
create_atoms 11 single -8.443257 10.564323 -7.038298
Created 1 atoms
set atom 1520 image 1 0 0
Setting atom values ...
  1 settings made for image
group   widom_test  type    10 11 # insert salt-pair
2 atoms in group widom_test
run 0 post no # temp=0.593298 unit_lj?=False velocity generated
PPPM initialization ...
  G vector (1/distance) = 0.2976179
  grid = 15 15 15
  stencil order = 5
  estimated absolute RMS force accuracy = 0.027571148
  estimated relative force accuracy = 8.3029694e-05
  3d grid and FFT values/proc = 1728 150
Step Temp Atoms Density TotEng PotEng KinEng E_coul E_vdwl E_long E_bond E_angle E_dihed Enthalpy Press
2000   209.606476     1520     1.032885 32456.788656 31507.721875   949.066781 22569.478824 39948.010800 -31009.774389     0.006604     0.000036     0.000000 193699.507852 716960.028322
Loop time of 2.6463e-06 on 27 procs for 0 steps with 1520 atoms

run 0 post no # temp=0.593298 unit_lj?=False velocity generated
PPPM initialization ...
  G vector (1/distance) = 0.2976179
  grid = 15 15 15
  stencil order = 5
  estimated absolute RMS force accuracy = 0.027571148
  estimated relative force accuracy = 8.3029694e-05
  3d grid and FFT values/proc = 1728 150
Step Temp Atoms Density TotEng PotEng KinEng E_coul E_vdwl E_long E_bond E_angle E_dihed Enthalpy Press
2000   209.748129     1520     1.032885 32457.430037 31507.721875   949.708162 22569.478824 39948.010800 -31009.774389     0.006604     0.000036     0.000000 193700.576821 716961.929575
Loop time of 2.59533e-06 on 27 procs for 0 steps with 1520 atoms

# generated_velocity_salt 1519 cation vel -0.002813 -0.004327 -0.002342
# generated_velocity_salt 1520 anion vel -0.003597 0.001368 0.000571
set type 10 charge 1.000000
Setting atom values ...
  1 settings made for charge
set type 11 charge -1.000000
Setting atom values ...
  1 settings made for charge
run 0 post no # insert flying molecule
PPPM initialization ...
  G vector (1/distance) = 0.2976179
  grid = 15 15 15
  stencil order = 5
  estimated absolute RMS force accuracy = 0.027670179
  estimated relative force accuracy = 8.3327922e-05
  3d grid and FFT values/proc = 1728 150
Step Temp Atoms Density TotEng PotEng KinEng E_coul E_vdwl E_long E_bond E_angle E_dihed Enthalpy Press
2000   209.748129     1520     1.032885 32421.905131 31472.196969   949.708162 22575.715402 39948.010800 -31051.535873     0.006604     0.000036     0.000000 193653.283221 716909.600493
Loop time of 2.55719e-06 on 27 procs for 0 steps with 1520 atoms

group noneq_run_rigid    intersect   all         water               # select_salt no selection
1500 atoms in group noneq_run_rigid
group noneq_run_pre      subtract    all         noneq_run_rigid     # select_salt no selection
20 atoms in group noneq_run_pre
group noneq_run          subtract    noneq_run_pre   widom_test      # select_salt no selection
18 atoms in group noneq_run
group noneq_run_pre      delete
run 0 post no # mom rev random number
PPPM initialization ...
  G vector (1/distance) = 0.2976179
  grid = 15 15 15
  stencil order = 5
  estimated absolute RMS force accuracy = 0.027670179
  estimated relative force accuracy = 8.3327922e-05
  3d grid and FFT values/proc = 1728 150
Step Temp Atoms Density TotEng PotEng KinEng E_coul E_vdwl E_long E_bond E_angle E_dihed Enthalpy Press
2000   209.748129     1520     1.032885 32421.905131 31472.196969   949.708162 22575.715402 39948.010800 -31051.535873     0.006604     0.000036     0.000000 193653.283221 716909.600493
Loop time of 2.64219e-06 on 27 procs for 0 steps with 1520 atoms

run 0 post no # momentum reversal applied
PPPM initialization ...
  G vector (1/distance) = 0.2976179
  grid = 15 15 15
  stencil order = 5
  estimated absolute RMS force accuracy = 0.027670179
  estimated relative force accuracy = 8.3327922e-05
  3d grid and FFT values/proc = 1728 150
Step Temp Atoms Density TotEng PotEng KinEng E_coul E_vdwl E_long E_bond E_angle E_dihed Enthalpy Press
2000   209.748129     1520     1.032885 32421.905131 31472.196969   949.708162 22575.715402 39948.010800 -31051.535873     0.006604     0.000036     0.000000 193653.283221 716909.600493
Loop time of 3.37537e-06 on 27 procs for 0 steps with 1520 atoms

######################################################################
pair_style   lj/cut/coul/long/neq 14.000000 14.000000 2000 5000 3.000000 7 1 0 1.000000 3.000000 11 1.000000
kspace_style pppm/neq 0.0001 2000 5000 3.000000 7 1 0 1.000000 3.000000 11 1.000000

# LJ JC_SPCE (neq? True)
# real particles
pair_coeff  1 1     0.155354    3.169   14.0   # O O
pair_coeff  3 3     0.352644    2.1595  14.0   # Na Na
pair_coeff  4 4     0.0127851   4.8305  14.0   # Cl Cl
# flying particles
pair_coeff  8 8     0.155354    3.169   14.0   # O O
pair_coeff  10 10   0.352644    2.1595  14.0   # Na Na
pair_coeff  11 11   0.0127851   4.8305  14.0   # Cl Cl
# wall particles: not exist now
pair_coeff  * 5 0 0 14.0
pair_coeff  * 6 0 0 14.0
pair_coeff  * 7 0 0 14.0
# hydrogens
pair_coeff  * 2 0 0 14.0 # hydrogen
pair_coeff  * 9 0 0 14.0 # flying hydrogen

# intramolecular force field
bond_coeff  1   100000   1.0
angle_coeff 1   100000   109.470000

pair_modify  tail no shift yes mix arithmetic # LB mixing rule
neigh_modify delay 4 every 1 check yes page 500000 one 50000
######################################################################
timestep 4.000000
fix  eqmd  noneq_run_rigid     rigid/nve molecule  # rigid water
  500 rigid bodies with 1500 atoms
fix  eqions  noneq_run           nve                 # nve for non-rigid
run 5000 # (neq? True) MD run
4D PPPM initialization ...
  G vector (1/distance) = 0.19349641
  grid = 10 10 10
  stencil order = 5
  estimated absolute RMS force accuracy = 0.018834364
  estimated relative force accuracy = 5.6719127e-05
  3d grid and FFT values/proc = 729 80
  update every 1 steps, delay 4 steps, check yes
Step Temp Atoms Density TotEng PotEng KinEng E_coul E_vdwl E_long E_bond E_angle E_dihed Enthalpy Press
2000   312.664053     1520     1.032885 12853.912130 11904.212127   949.700003 11736.520832  1174.164257 -1006.479602     0.006604     0.000036     0.000000 12981.106325   565.564471
Loop time of 21.5316 on 27 procs for 5000 steps with 1520 atoms

unfix    eqmd
unfix    eqions
run 0 post no # momentum reversal applied
4D PPPM initialization ...
  G vector (1/distance) = 0.19349641
  grid = 10 10 10
  stencil order = 5
  estimated absolute RMS force accuracy = 0.018834364
  estimated relative force accuracy = 5.6719127e-05
  3d grid and FFT values/proc = 729 80
Step Temp Atoms Density TotEng PotEng KinEng E_coul E_vdwl E_long E_bond E_angle E_dihed Enthalpy Press
7000   200.503474     1520     1.032885 -6483.569103 -7391.418852   907.849750 11699.714204  1160.854276 -20251.993973     0.006604     0.000036     0.000000  -766.213244 25422.019913
Loop time of 3.48896e-06 on 27 procs for 0 steps with 1520 atoms

group   solvent type 1 2
1500 atoms in group solvent
group   water   type 1 2
1500 atoms in group water
group   ions    type 3 4
18 atoms in group ions
group   wall    type 5 6 7
0 atoms in group wall
group   flying  type 8 9 10 11
2 atoms in group flying
group   eq_run  union solvent ions flying
1520 atoms in group eq_run

######################################################################
pair_style   lj/cut/coul/long 9.000000 9.000000
kspace_style pppm 0.0001

# LJ JC_SPCE (neq? False)
# real particles
pair_coeff  1 1     0.155354    3.169   9.0   # O O
pair_coeff  3 3     0.352644    2.1595  9.0   # Na Na
pair_coeff  4 4     0.0127851   4.8305  9.0   # Cl Cl
# flying particles
pair_coeff  8 8     0.155354    3.169   9.0   # O O
pair_coeff  10 10   0.352644    2.1595  9.0   # Na Na
pair_coeff  11 11   0.0127851   4.8305  9.0   # Cl Cl
# wall particles: not exist now
pair_coeff  * 5 0 0 9.0
pair_coeff  * 6 0 0 9.0
pair_coeff  * 7 0 0 9.0
# hydrogens
pair_coeff  * 2 0 0 9.0 # hydrogen
pair_coeff  * 9 0 0 9.0 # flying hydrogen

# intramolecular force field
bond_coeff  1   100000   1.0
angle_coeff 1   100000   109.470000

pair_modify  tail no shift yes mix arithmetic # LB mixing rule
neigh_modify delay 5 every 1 check yes page 500000 one 50000
######################################################################
run 0 post no # update forcefield; return to Eq
PPPM initialization ...
  G vector (1/distance) = 0.2976179
  grid = 15 15 15
  stencil order = 5
  estimated absolute RMS force accuracy = 0.027670179
  estimated relative force accuracy = 8.3327922e-05
  3d grid and FFT values/proc = 1728 150
  update every 1 steps, delay 5 steps, check yes
Step Temp Atoms Density TotEng PotEng KinEng E_coul E_vdwl E_long E_bond E_angle E_dihed Enthalpy Press
7000   200.503474     1520     1.032885 -6437.308494 -7345.158244   907.849750 22574.146883  1206.508628 -31125.820395     0.006604     0.000036     0.000000  -671.247482 25638.585647
Loop time of 3.69189e-06 on 27 procs for 0 steps with 1520 atoms

# done post_propagate after NEMD
# selected salt 1519/1520
#The center of bimodal dist. on a positive side=4.000000
delete_atoms group widom_test compress no bond yes mol yes # reject_insert
Deleted 2 atoms, new total = 1518
Deleted 0 bonds, new total = 1000
Deleted 0 angles, new total = 500
run 0 post no # delete trial-inserted flying molecule
PPPM initialization ...
  G vector (1/distance) = 0.2976179
  grid = 15 15 15
  stencil order = 5
  estimated absolute RMS force accuracy = 0.027589305
  estimated relative force accuracy = 8.3084373e-05
  3d grid and FFT values/proc = 1728 150
Step Temp Atoms Density TotEng PotEng KinEng E_coul E_vdwl E_long E_bond E_angle E_dihed Enthalpy Press
7000   200.430825     1518     1.026592 -6118.792741 -7025.118655   906.325914 22749.710965  1179.729379 -30954.565639     0.006604     0.000036     0.000000  -380.713940 25514.163739
Loop time of 3.13863e-06 on 27 procs for 0 steps with 1518 atoms

run 0 post no # return_position back to old
PPPM initialization ...
  G vector (1/distance) = 0.2976179
  grid = 15 15 15
  stencil order = 5
  estimated absolute RMS force accuracy = 0.027589305
  estimated relative force accuracy = 8.3084373e-05
  3d grid and FFT values/proc = 1728 150
Step Temp Atoms Density TotEng PotEng KinEng E_coul E_vdwl E_long E_bond E_angle E_dihed Enthalpy Press
7000   209.687668     1518     1.026592 -6271.458103 -7219.642430   948.184327 22569.478834  1220.646496 -31009.774401     0.006604     0.000036     0.000000  -387.282853 26163.776421
Loop time of 2.5373e-06 on 27 procs for 0 steps with 1518 atoms

group widom_test         delete
group noneq_run          delete
group noneq_run_rigid    delete
reset_timestep 2000

group   solvent delete
group   water   delete
group   ions    delete
group   wall    delete
group   flying  delete
group   eq_run  delete

log logfile_hneqMDMC.2
