group   solvent type 1 2
1500 atoms in group solvent
group   water   type 1 2
1500 atoms in group water
group   ions    type 3 4
18 atoms in group ions
group   wall    type 5 6 7
0 atoms in group wall
group   flying  type 8 9 10 11
0 atoms in group flying
group   eq_run  union solvent ions flying
1518 atoms in group eq_run

######################################################################
pair_style   lj/cut/coul/long 9.000000 9.000000
kspace_style pppm 0.0001

# LJ JC_SPCE (neq? False)
# real particles
pair_coeff  1 1     0.155354    3.169   9.0   # O O
pair_coeff  3 3     0.352644    2.1595  9.0   # Na Na
pair_coeff  4 4     0.0127851   4.8305  9.0   # Cl Cl
# flying particles
pair_coeff  8 8     0.155354    3.169   9.0   # O O
pair_coeff  10 10   0.352644    2.1595  9.0   # Na Na
pair_coeff  11 11   0.0127851   4.8305  9.0   # Cl Cl
# wall particles: not exist now
pair_coeff  * 5 0 0 9.0
pair_coeff  * 6 0 0 9.0
pair_coeff  * 7 0 0 9.0
# hydrogens
pair_coeff  * 2 0 0 9.0 # hydrogen
pair_coeff  * 9 0 0 9.0 # flying hydrogen

# intramolecular force field
bond_coeff  1   100000   1.0
angle_coeff 1   100000   109.470000

pair_modify  tail no shift yes mix arithmetic # LB mixing rule
neigh_modify delay 5 every 1 check yes page 500000 one 50000
######################################################################
fix fOHs        all    shake 0.00001 40 50000 b 1 a 1
       0 = # of size 2 clusters
       0 = # of size 3 clusters
       0 = # of size 4 clusters
     500 = # of frozen angles
  find clusters CPU = 0.001 seconds
timestep 2.000000
thermo 2000
fix  eqmd   eq_run npt temp 298.150000 298.150000 200.000000 iso 1.000000 1.000000 2000.000000
run 1000 # (neq? False) MD run
PPPM initialization ...
  G vector (1/distance) = 0.29809527
  grid = 15 15 15
  stencil order = 5
  estimated absolute RMS force accuracy = 0.027168855
  estimated relative force accuracy = 8.1818199e-05
  3d grid and FFT values/proc = 1728 150
SHAKE stats (type/ave/delta/count) on step 6000
Step Temp Atoms Density TotEng PotEng KinEng E_coul E_vdwl E_long E_bond E_angle E_dihed Enthalpy Press
6000   296.821277     1518     1.042477 -6276.914870 -7176.723770   899.808900 22725.862885  1162.833801 -31065.420456     0.000000     0.000000     0.000000 -6315.763630  -175.412546
Loop time of 1.56409 on 27 procs for 1000 steps with 1518 atoms

unfix fOHs
unfix    eqmd

group   solvent type 1 2
1500 atoms in group solvent
group   water   type 1 2
1500 atoms in group water
group   ions    type 3 4
18 atoms in group ions
group   wall    type 5 6 7
0 atoms in group wall
group   flying  type 8 9 10 11
0 atoms in group flying
group   eq_run  union solvent ions flying
1518 atoms in group eq_run

######################################################################
pair_style   lj/cut/coul/long 9.000000 9.000000
kspace_style pppm 0.0001

# LJ JC_SPCE (neq? False)
# real particles
pair_coeff  1 1     0.155354    3.169   9.0   # O O
pair_coeff  3 3     0.352644    2.1595  9.0   # Na Na
pair_coeff  4 4     0.0127851   4.8305  9.0   # Cl Cl
# flying particles
pair_coeff  8 8     0.155354    3.169   9.0   # O O
pair_coeff  10 10   0.352644    2.1595  9.0   # Na Na
pair_coeff  11 11   0.0127851   4.8305  9.0   # Cl Cl
# wall particles: not exist now
pair_coeff  * 5 0 0 9.0
pair_coeff  * 6 0 0 9.0
pair_coeff  * 7 0 0 9.0
# hydrogens
pair_coeff  * 2 0 0 9.0 # hydrogen
pair_coeff  * 9 0 0 9.0 # flying hydrogen

# intramolecular force field
bond_coeff  1   100000   1.0
angle_coeff 1   100000   109.470000

pair_modify  tail no shift yes mix arithmetic # LB mixing rule
neigh_modify delay 5 every 1 check yes page 500000 one 50000
######################################################################
# shake is off; should be a dummy run
timestep 2.000000
thermo 2000
fix  eqmd   eq_run npt temp 298.150000 298.150000 200.000000 iso 1.000000 1.000000 2000.000000
run 0 # (neq? False) MD run
PPPM initialization ...
  G vector (1/distance) = 0.29755775
  grid = 15 15 15
  stencil order = 5
  estimated absolute RMS force accuracy = 0.027642693
  estimated relative force accuracy = 8.3245149e-05
  3d grid and FFT values/proc = 1728 150
Step Temp Atoms Density TotEng PotEng KinEng E_coul E_vdwl E_long E_bond E_angle E_dihed Enthalpy Press
7000   190.633001     1518     1.024609 -6320.591663 -7182.612903   862.021240 22611.136546  1213.598989 -31007.364795     0.016352     0.000006     0.000000  -837.321877 24334.072410
Loop time of 3.1503e-06 on 27 procs for 0 steps with 1518 atoms

unfix    eqmd
#The center (4.000000) and alpha (0.100000) of bimodal biasing function
create_atoms 10 single -12.337122 1.744541 7.467520
Created 1 atoms
create_atoms 11 single -6.967422 6.497580 9.972903
Created 1 atoms
set atom 1520 image 0 0 0
Setting atom values ...
  1 settings made for image
group   widom_test  type    10 11 # insert salt-pair
2 atoms in group widom_test
run 0 post no # temp=0.593298 unit_lj?=False velocity generated
PPPM initialization ...
  G vector (1/distance) = 0.29755775
  grid = 15 15 15
  stencil order = 5
  estimated absolute RMS force accuracy = 0.027624501
  estimated relative force accuracy = 8.3190365e-05
  3d grid and FFT values/proc = 1728 150
Step Temp Atoms Density TotEng PotEng KinEng E_coul E_vdwl E_long E_bond E_angle E_dihed Enthalpy Press
7000   190.496946     1520     1.030890 -6320.071215 -7182.612903   862.541688 22611.136536  1213.598989 -31007.364785     0.016352     0.000006     0.000000  -836.454463 24335.612200
Loop time of 2.63344e-06 on 27 procs for 0 steps with 1520 atoms

run 0 post no # temp=0.593298 unit_lj?=False velocity generated
PPPM initialization ...
  G vector (1/distance) = 0.29755775
  grid = 15 15 15
  stencil order = 5
  estimated absolute RMS force accuracy = 0.027624501
  estimated relative force accuracy = 8.3190365e-05
  3d grid and FFT values/proc = 1728 150
Step Temp Atoms Density TotEng PotEng KinEng E_coul E_vdwl E_long E_bond E_angle E_dihed Enthalpy Press
7000   190.543640     1520     1.030890 -6319.859794 -7182.612903   862.753108 22611.136536  1213.598989 -31007.364785     0.016352     0.000006     0.000000  -836.102096 24336.237705
Loop time of 2.83926e-06 on 27 procs for 0 steps with 1520 atoms

# generated_velocity_salt 1519 cation vel -0.001052 0.004169 0.000673
# generated_velocity_salt 1520 anion vel 0.000907 -0.002039 0.000095
set type 10 charge 1.000000
Setting atom values ...
  1 settings made for charge
set type 11 charge -1.000000
Setting atom values ...
  1 settings made for charge
run 0 post no # insert flying molecule
PPPM initialization ...
  G vector (1/distance) = 0.29755775
  grid = 15 15 15
  stencil order = 5
  estimated absolute RMS force accuracy = 0.027723723
  estimated relative force accuracy = 8.348917e-05
  3d grid and FFT values/proc = 1728 150
Step Temp Atoms Density TotEng PotEng KinEng E_coul E_vdwl E_long E_bond E_angle E_dihed Enthalpy Press
7000   190.543640     1520     1.030890 -6393.208235 -7255.961343   862.753108 22575.954204  1213.598989 -31045.530894     0.016352     0.000006     0.000000  -933.859576 24227.913412
Loop time of 3.28781e-06 on 27 procs for 0 steps with 1520 atoms

group noneq_run_rigid    intersect   all         water               # select_salt no selection
1500 atoms in group noneq_run_rigid
group noneq_run_pre      subtract    all         noneq_run_rigid     # select_salt no selection
20 atoms in group noneq_run_pre
group noneq_run          subtract    noneq_run_pre   widom_test      # select_salt no selection
18 atoms in group noneq_run
group noneq_run_pre      delete
run 0 post no # mom rev random number
PPPM initialization ...
  G vector (1/distance) = 0.29755775
  grid = 15 15 15
  stencil order = 5
  estimated absolute RMS force accuracy = 0.027723723
  estimated relative force accuracy = 8.348917e-05
  3d grid and FFT values/proc = 1728 150
Step Temp Atoms Density TotEng PotEng KinEng E_coul E_vdwl E_long E_bond E_angle E_dihed Enthalpy Press
7000   190.543640     1520     1.030890 -6393.208235 -7255.961343   862.753108 22575.954204  1213.598989 -31045.530894     0.016352     0.000006     0.000000  -933.859576 24227.913412
Loop time of 2.93596e-06 on 27 procs for 0 steps with 1520 atoms

######################################################################
pair_style   lj/cut/coul/long/neq 14.000000 14.000000 7000 5000 3.000000 7 1 0 1.000000 3.000000 11 1.000000
kspace_style pppm/neq 0.0001 7000 5000 3.000000 7 1 0 1.000000 3.000000 11 1.000000

# LJ JC_SPCE (neq? True)
# real particles
pair_coeff  1 1     0.155354    3.169   14.0   # O O
pair_coeff  3 3     0.352644    2.1595  14.0   # Na Na
pair_coeff  4 4     0.0127851   4.8305  14.0   # Cl Cl
# flying particles
pair_coeff  8 8     0.155354    3.169   14.0   # O O
pair_coeff  10 10   0.352644    2.1595  14.0   # Na Na
pair_coeff  11 11   0.0127851   4.8305  14.0   # Cl Cl
# wall particles: not exist now
pair_coeff  * 5 0 0 14.0
pair_coeff  * 6 0 0 14.0
pair_coeff  * 7 0 0 14.0
# hydrogens
pair_coeff  * 2 0 0 14.0 # hydrogen
pair_coeff  * 9 0 0 14.0 # flying hydrogen

# intramolecular force field
bond_coeff  1   100000   1.0
angle_coeff 1   100000   109.470000

pair_modify  tail no shift yes mix arithmetic # LB mixing rule
neigh_modify delay 4 every 1 check yes page 500000 one 50000
######################################################################
timestep 4.000000
fix  eqmd  noneq_run_rigid     rigid/nve molecule  # rigid water
  500 rigid bodies with 1500 atoms
fix  eqions  noneq_run           nve                 # nve for non-rigid
run 5000 # (neq? True) MD run
4D PPPM initialization ...
  G vector (1/distance) = 0.19345813
  grid = 10 10 10
  stencil order = 5
  estimated absolute RMS force accuracy = 0.018870882
  estimated relative force accuracy = 5.68291e-05
  3d grid and FFT values/proc = 729 80
  update every 1 steps, delay 4 steps, check yes
Step Temp Atoms Density TotEng PotEng KinEng E_coul E_vdwl E_long E_bond E_angle E_dihed Enthalpy Press
7000   284.036519     1520     1.030890 12802.596594 11939.851164   862.745430 11777.895983  1168.307091 -1006.368267     0.016352     0.000006     0.000000 13329.554408  2338.573535
Loop time of 21.5289 on 27 procs for 5000 steps with 1520 atoms

unfix    eqmd
unfix    eqions

group   solvent type 1 2
1500 atoms in group solvent
group   water   type 1 2
1500 atoms in group water
group   ions    type 3 4
18 atoms in group ions
group   wall    type 5 6 7
0 atoms in group wall
group   flying  type 8 9 10 11
2 atoms in group flying
group   eq_run  union solvent ions flying
1520 atoms in group eq_run

######################################################################
pair_style   lj/cut/coul/long 9.000000 9.000000
kspace_style pppm 0.0001

# LJ JC_SPCE (neq? False)
# real particles
pair_coeff  1 1     0.155354    3.169   9.0   # O O
pair_coeff  3 3     0.352644    2.1595  9.0   # Na Na
pair_coeff  4 4     0.0127851   4.8305  9.0   # Cl Cl
# flying particles
pair_coeff  8 8     0.155354    3.169   9.0   # O O
pair_coeff  10 10   0.352644    2.1595  9.0   # Na Na
pair_coeff  11 11   0.0127851   4.8305  9.0   # Cl Cl
# wall particles: not exist now
pair_coeff  * 5 0 0 9.0
pair_coeff  * 6 0 0 9.0
pair_coeff  * 7 0 0 9.0
# hydrogens
pair_coeff  * 2 0 0 9.0 # hydrogen
pair_coeff  * 9 0 0 9.0 # flying hydrogen

# intramolecular force field
bond_coeff  1   100000   1.0
angle_coeff 1   100000   109.470000

pair_modify  tail no shift yes mix arithmetic # LB mixing rule
neigh_modify delay 5 every 1 check yes page 500000 one 50000
######################################################################
run 0 post no # update forcefield; return to Eq
PPPM initialization ...
  G vector (1/distance) = 0.29755775
  grid = 15 15 15
  stencil order = 5
  estimated absolute RMS force accuracy = 0.027723723
  estimated relative force accuracy = 8.348917e-05
  3d grid and FFT values/proc = 1728 150
  update every 1 steps, delay 5 steps, check yes
Step Temp Atoms Density TotEng PotEng KinEng E_coul E_vdwl E_long E_bond E_angle E_dihed Enthalpy Press
12000   205.373567     1520     1.030890 -6485.925420 -7415.826222   929.900802 22418.736417  1283.015529 -31117.594527     0.016352     0.000006     0.000000  -714.278211 25613.855710
Loop time of 3.27807e-06 on 27 procs for 0 steps with 1520 atoms

# done post_propagate after NEMD
# selected salt 1519/1520
#The center of bimodal dist. on a positive side=4.000000
delete_atoms group widom_test compress no bond yes mol yes # reject_insert
Deleted 2 atoms, new total = 1518
Deleted 0 bonds, new total = 1000
Deleted 0 angles, new total = 500
run 0 post no # delete trial-inserted flying molecule
PPPM initialization ...
  G vector (1/distance) = 0.29755775
  grid = 15 15 15
  stencil order = 5
  estimated absolute RMS force accuracy = 0.027642693
  estimated relative force accuracy = 8.3245149e-05
  3d grid and FFT values/proc = 1728 150
Step Temp Atoms Density TotEng PotEng KinEng E_coul E_vdwl E_long E_bond E_angle E_dihed Enthalpy Press
12000   205.482480     1518     1.024609 -6200.651900 -7129.820834   929.168933 22581.726714  1256.776358 -30968.340264     0.016352     0.000006     0.000000  -462.446996 25465.442902
Loop time of 2.78037e-06 on 27 procs for 0 steps with 1518 atoms

run 0 post no # return_position back to old
PPPM initialization ...
  G vector (1/distance) = 0.29755775
  grid = 15 15 15
  stencil order = 5
  estimated absolute RMS force accuracy = 0.027642693
  estimated relative force accuracy = 8.3245149e-05
  3d grid and FFT values/proc = 1728 150
Step Temp Atoms Density TotEng PotEng KinEng E_coul E_vdwl E_long E_bond E_angle E_dihed Enthalpy Press
12000   190.633001     1518     1.024609 -6320.591657 -7182.612897   862.021240 22611.136546  1213.598989 -31007.364790     0.016352     0.000006     0.000000  -837.321870 24334.072414
Loop time of 2.92104e-06 on 27 procs for 0 steps with 1518 atoms

group widom_test         delete
group noneq_run          delete
group noneq_run_rigid    delete
reset_timestep 7000

group   solvent delete
group   water   delete
group   ions    delete
group   wall    delete
group   flying  delete
group   eq_run  delete

write_data restart_after_MC_6.data pair ij
System init for write_data ...
PPPM initialization ...
  G vector (1/distance) = 0.29755775
  grid = 15 15 15
  stencil order = 5
  estimated absolute RMS force accuracy = 0.027642693
  estimated relative force accuracy = 8.3245149e-05
  3d grid and FFT values/proc = 1728 150
log logfile_hneqMDMC.7
