group   solvent type 1 2
1500 atoms in group solvent
group   water   type 1 2
1500 atoms in group water
group   ions    type 3 4
18 atoms in group ions
group   wall    type 5 6 7
0 atoms in group wall
group   flying  type 8 9 10 11
0 atoms in group flying
group   eq_run  union solvent ions flying
1518 atoms in group eq_run

######################################################################
pair_style   lj/cut/coul/long 9.000000 9.000000
kspace_style pppm 0.0001

# LJ JC_SPCE (neq? False)
# real particles
pair_coeff  1 1     0.155354    3.169   9.0   # O O
pair_coeff  3 3     0.352644    2.1595  9.0   # Na Na
pair_coeff  4 4     0.0127851   4.8305  9.0   # Cl Cl
# flying particles
pair_coeff  8 8     0.155354    3.169   9.0   # O O
pair_coeff  10 10   0.352644    2.1595  9.0   # Na Na
pair_coeff  11 11   0.0127851   4.8305  9.0   # Cl Cl
# wall particles: not exist now
pair_coeff  * 5 0 0 9.0
pair_coeff  * 6 0 0 9.0
pair_coeff  * 7 0 0 9.0
# hydrogens
pair_coeff  * 2 0 0 9.0 # hydrogen
pair_coeff  * 9 0 0 9.0 # flying hydrogen

# intramolecular force field
bond_coeff  1   100000   1.0
angle_coeff 1   100000   109.470000

pair_modify  tail no shift yes mix arithmetic # LB mixing rule
neigh_modify delay 5 every 1 check yes page 500000 one 50000
######################################################################
fix fOHs        all    shake 0.00001 40 50000 b 1 a 1
       0 = # of size 2 clusters
       0 = # of size 3 clusters
       0 = # of size 4 clusters
     500 = # of frozen angles
  find clusters CPU = 0.001 seconds
timestep 2.000000
thermo 2000
fix  eqmd   eq_run npt temp 298.150000 298.150000 200.000000 iso 1.000000 1.000000 2000.000000
run 1000 # (neq? False) MD run
PPPM initialization ...
  G vector (1/distance) = 0.29805167
  grid = 15 15 15
  stencil order = 5
  estimated absolute RMS force accuracy = 0.027207019
  estimated relative force accuracy = 8.193313e-05
  3d grid and FFT values/proc = 1728 150
SHAKE stats (type/ave/delta/count) on step 8000
Step Temp Atoms Density TotEng PotEng KinEng E_coul E_vdwl E_long E_bond E_angle E_dihed Enthalpy Press
8000   298.123958     1518     1.041015 -6316.354587 -7220.112542   903.757955 22607.932452  1231.618028 -31059.663022     0.000000     0.000000     0.000000 -6194.330033   550.200844
Loop time of 1.54705 on 27 procs for 1000 steps with 1518 atoms

unfix fOHs
unfix    eqmd

group   solvent type 1 2
1500 atoms in group solvent
group   water   type 1 2
1500 atoms in group water
group   ions    type 3 4
18 atoms in group ions
group   wall    type 5 6 7
0 atoms in group wall
group   flying  type 8 9 10 11
0 atoms in group flying
group   eq_run  union solvent ions flying
1518 atoms in group eq_run

######################################################################
pair_style   lj/cut/coul/long 9.000000 9.000000
kspace_style pppm 0.0001

# LJ JC_SPCE (neq? False)
# real particles
pair_coeff  1 1     0.155354    3.169   9.0   # O O
pair_coeff  3 3     0.352644    2.1595  9.0   # Na Na
pair_coeff  4 4     0.0127851   4.8305  9.0   # Cl Cl
# flying particles
pair_coeff  8 8     0.155354    3.169   9.0   # O O
pair_coeff  10 10   0.352644    2.1595  9.0   # Na Na
pair_coeff  11 11   0.0127851   4.8305  9.0   # Cl Cl
# wall particles: not exist now
pair_coeff  * 5 0 0 9.0
pair_coeff  * 6 0 0 9.0
pair_coeff  * 7 0 0 9.0
# hydrogens
pair_coeff  * 2 0 0 9.0 # hydrogen
pair_coeff  * 9 0 0 9.0 # flying hydrogen

# intramolecular force field
bond_coeff  1   100000   1.0
angle_coeff 1   100000   109.470000

pair_modify  tail no shift yes mix arithmetic # LB mixing rule
neigh_modify delay 5 every 1 check yes page 500000 one 50000
######################################################################
# shake is off; should be a dummy run
timestep 2.000000
thermo 2000
fix  eqmd   eq_run npt temp 298.150000 298.150000 200.000000 iso 1.000000 1.000000 2000.000000
run 0 # (neq? False) MD run
PPPM initialization ...
  G vector (1/distance) = 0.29832784
  grid = 15 15 15
  stencil order = 5
  estimated absolute RMS force accuracy = 0.026966089
  estimated relative force accuracy = 8.1207577e-05
  3d grid and FFT values/proc = 1728 150
Step Temp Atoms Density TotEng PotEng KinEng E_coul E_vdwl E_long E_bond E_angle E_dihed Enthalpy Press
9000   198.366034     1518     1.050313 -6339.469366 -7236.458521   896.989155 22660.410575  1189.134327 -31086.043558     0.040132     0.000003     0.000000 -1340.163328 22742.877857
Loop time of 2.86207e-06 on 27 procs for 0 steps with 1518 atoms

unfix    eqmd
#The center (4.000000) and alpha (0.100000) of bimodal biasing function
create_atoms 10 single 4.247567 -0.745506 1.417293
Created 1 atoms
create_atoms 11 single 6.729537 -5.297377 -0.135951
Created 1 atoms
set atom 1520 image 0 0 0
Setting atom values ...
  1 settings made for image
group   widom_test  type    10 11 # insert salt-pair
2 atoms in group widom_test
run 0 post no # temp=0.593298 unit_lj?=False velocity generated
PPPM initialization ...
  G vector (1/distance) = 0.29832784
  grid = 15 15 15
  stencil order = 5
  estimated absolute RMS force accuracy = 0.026948343
  estimated relative force accuracy = 8.1154134e-05
  3d grid and FFT values/proc = 1728 150
Step Temp Atoms Density TotEng PotEng KinEng E_coul E_vdwl E_long E_bond E_angle E_dihed Enthalpy Press
9000   198.193688     1520     1.056752 -6339.067139 -7236.458521   897.391382 22660.410561  1189.134327 -31086.043544     0.040132     0.000003     0.000000 -1339.492950 22744.097733
Loop time of 2.8603e-06 on 27 procs for 0 steps with 1520 atoms

run 0 post no # temp=0.593298 unit_lj?=False velocity generated
PPPM initialization ...
  G vector (1/distance) = 0.29832784
  grid = 15 15 15
  stencil order = 5
  estimated absolute RMS force accuracy = 0.026948343
  estimated relative force accuracy = 8.1154134e-05
  3d grid and FFT values/proc = 1728 150
Step Temp Atoms Density TotEng PotEng KinEng E_coul E_vdwl E_long E_bond E_angle E_dihed Enthalpy Press
9000   198.209604     1520     1.056752 -6338.995074 -7236.458521   897.463447 22660.410561  1189.134327 -31086.043544     0.040132     0.000003     0.000000 -1339.372840 22744.316294
Loop time of 3.10048e-06 on 27 procs for 0 steps with 1520 atoms

# generated_velocity_salt 1519 cation vel -0.003756 0.000145 -0.000716
# generated_velocity_salt 1520 anion vel 0.001012 0.000368 0.000735
set type 10 charge 1.000000
Setting atom values ...
  1 settings made for charge
set type 11 charge -1.000000
Setting atom values ...
  1 settings made for charge
run 0 post no # insert flying molecule
PPPM initialization ...
  G vector (1/distance) = 0.29832784
  grid = 15 15 15
  stencil order = 5
  estimated absolute RMS force accuracy = 0.027045136
  estimated relative force accuracy = 8.1445625e-05
  3d grid and FFT values/proc = 1728 150
Step Temp Atoms Density TotEng PotEng KinEng E_coul E_vdwl E_long E_bond E_angle E_dihed Enthalpy Press
9000   198.209604     1520     1.056752 -6402.213884 -7299.677332   897.463447 22662.574020  1189.134327 -31151.425814     0.040132     0.000003     0.000000 -1423.583426 22648.820365
Loop time of 3.28515e-06 on 27 procs for 0 steps with 1520 atoms

group noneq_run_rigid    intersect   all         water               # select_salt no selection
1500 atoms in group noneq_run_rigid
group noneq_run_pre      subtract    all         noneq_run_rigid     # select_salt no selection
20 atoms in group noneq_run_pre
group noneq_run          subtract    noneq_run_pre   widom_test      # select_salt no selection
18 atoms in group noneq_run
group noneq_run_pre      delete
run 0 post no # mom rev random number
PPPM initialization ...
  G vector (1/distance) = 0.29832784
  grid = 15 15 15
  stencil order = 5
  estimated absolute RMS force accuracy = 0.027045136
  estimated relative force accuracy = 8.1445625e-05
  3d grid and FFT values/proc = 1728 150
Step Temp Atoms Density TotEng PotEng KinEng E_coul E_vdwl E_long E_bond E_angle E_dihed Enthalpy Press
9000   198.209604     1520     1.056752 -6402.213884 -7299.677332   897.463447 22662.574020  1189.134327 -31151.425814     0.040132     0.000003     0.000000 -1423.583426 22648.820365
Loop time of 3.23448e-06 on 27 procs for 0 steps with 1520 atoms

run 0 post no # momentum reversal applied
PPPM initialization ...
  G vector (1/distance) = 0.29832784
  grid = 15 15 15
  stencil order = 5
  estimated absolute RMS force accuracy = 0.027045136
  estimated relative force accuracy = 8.1445625e-05
  3d grid and FFT values/proc = 1728 150
Step Temp Atoms Density TotEng PotEng KinEng E_coul E_vdwl E_long E_bond E_angle E_dihed Enthalpy Press
9000   198.209604     1520     1.056752 -6402.213884 -7299.677332   897.463447 22662.574020  1189.134327 -31151.425814     0.040132     0.000003     0.000000 -1423.583426 22648.820365
Loop time of 3.138e-06 on 27 procs for 0 steps with 1520 atoms

######################################################################
pair_style   lj/cut/coul/long/neq 14.000000 14.000000 9000 5000 3.000000 7 1 0 1.000000 3.000000 11 1.000000
kspace_style pppm/neq 0.0001 9000 5000 3.000000 7 1 0 1.000000 3.000000 11 1.000000

# LJ JC_SPCE (neq? True)
# real particles
pair_coeff  1 1     0.155354    3.169   14.0   # O O
pair_coeff  3 3     0.352644    2.1595  14.0   # Na Na
pair_coeff  4 4     0.0127851   4.8305  14.0   # Cl Cl
# flying particles
pair_coeff  8 8     0.155354    3.169   14.0   # O O
pair_coeff  10 10   0.352644    2.1595  14.0   # Na Na
pair_coeff  11 11   0.0127851   4.8305  14.0   # Cl Cl
# wall particles: not exist now
pair_coeff  * 5 0 0 14.0
pair_coeff  * 6 0 0 14.0
pair_coeff  * 7 0 0 14.0
# hydrogens
pair_coeff  * 2 0 0 14.0 # hydrogen
pair_coeff  * 9 0 0 14.0 # flying hydrogen

# intramolecular force field
bond_coeff  1   100000   1.0
angle_coeff 1   100000   109.470000

pair_modify  tail no shift yes mix arithmetic # LB mixing rule
neigh_modify delay 4 every 1 check yes page 500000 one 50000
######################################################################
timestep 4.000000
fix  eqmd  noneq_run_rigid     rigid/nve molecule  # rigid water
  500 rigid bodies with 1500 atoms
fix  eqions  noneq_run           nve                 # nve for non-rigid
run 5000 # (neq? True) MD run
4D PPPM initialization ...
  G vector (1/distance) = 0.19394813
  grid = 10 10 10
  stencil order = 5
  estimated absolute RMS force accuracy = 0.01840812
  estimated relative force accuracy = 5.5435506e-05
  3d grid and FFT values/proc = 729 80
  update every 1 steps, delay 4 steps, check yes
Step Temp Atoms Density TotEng PotEng KinEng E_coul E_vdwl E_long E_bond E_angle E_dihed Enthalpy Press
9000   295.463688     1520     1.056752 12828.523115 11931.068283   897.454832 11799.187555  1141.447532 -1009.606939     0.040132     0.000003     0.000000 13885.933797  4810.380040
Loop time of 22.0842 on 27 procs for 5000 steps with 1520 atoms

unfix    eqmd
unfix    eqions
run 0 post no # momentum reversal applied
4D PPPM initialization ...
  G vector (1/distance) = 0.19394813
  grid = 10 10 10
  stencil order = 5
  estimated absolute RMS force accuracy = 0.01840812
  estimated relative force accuracy = 5.5435506e-05
  3d grid and FFT values/proc = 729 80
Step Temp Atoms Density TotEng PotEng KinEng E_coul E_vdwl E_long E_bond E_angle E_dihed Enthalpy Press
14000   194.215480     1520     1.056752 -6557.040889 -7436.419540   879.378651 11667.182507  1194.154337 -20297.796519     0.040132     0.000003     0.000000 -1430.064868 23323.675028
Loop time of 3.23463e-06 on 27 procs for 0 steps with 1520 atoms

group   solvent type 1 2
1500 atoms in group solvent
group   water   type 1 2
1500 atoms in group water
group   ions    type 3 4
18 atoms in group ions
group   wall    type 5 6 7
0 atoms in group wall
group   flying  type 8 9 10 11
2 atoms in group flying
group   eq_run  union solvent ions flying
1520 atoms in group eq_run

######################################################################
pair_style   lj/cut/coul/long 9.000000 9.000000
kspace_style pppm 0.0001

# LJ JC_SPCE (neq? False)
# real particles
pair_coeff  1 1     0.155354    3.169   9.0   # O O
pair_coeff  3 3     0.352644    2.1595  9.0   # Na Na
pair_coeff  4 4     0.0127851   4.8305  9.0   # Cl Cl
# flying particles
pair_coeff  8 8     0.155354    3.169   9.0   # O O
pair_coeff  10 10   0.352644    2.1595  9.0   # Na Na
pair_coeff  11 11   0.0127851   4.8305  9.0   # Cl Cl
# wall particles: not exist now
pair_coeff  * 5 0 0 9.0
pair_coeff  * 6 0 0 9.0
pair_coeff  * 7 0 0 9.0
# hydrogens
pair_coeff  * 2 0 0 9.0 # hydrogen
pair_coeff  * 9 0 0 9.0 # flying hydrogen

# intramolecular force field
bond_coeff  1   100000   1.0
angle_coeff 1   100000   109.470000

pair_modify  tail no shift yes mix arithmetic # LB mixing rule
neigh_modify delay 5 every 1 check yes page 500000 one 50000
######################################################################
run 0 post no # update forcefield; return to Eq
PPPM initialization ...
  G vector (1/distance) = 0.29832784
  grid = 15 15 15
  stencil order = 5
  estimated absolute RMS force accuracy = 0.027045136
  estimated relative force accuracy = 8.1445625e-05
  3d grid and FFT values/proc = 1728 150
  update every 1 steps, delay 5 steps, check yes
Step Temp Atoms Density TotEng PotEng KinEng E_coul E_vdwl E_long E_bond E_angle E_dihed Enthalpy Press
14000   194.215480     1520     1.056752 -6509.973227 -7389.351878   879.378651 22564.393163  1240.889911 -31194.675087     0.040132     0.000003     0.000000 -1335.370471 23540.338904
Loop time of 2.70674e-06 on 27 procs for 0 steps with 1520 atoms

# done post_propagate after NEMD
# selected salt 1519/1520
#The center of bimodal dist. on a positive side=4.000000
delete_atoms group widom_test compress no bond yes mol yes # reject_insert
Deleted 2 atoms, new total = 1518
Deleted 0 bonds, new total = 1000
Deleted 0 angles, new total = 500
run 0 post no # delete trial-inserted flying molecule
PPPM initialization ...
  G vector (1/distance) = 0.29832784
  grid = 15 15 15
  stencil order = 5
  estimated absolute RMS force accuracy = 0.026966089
  estimated relative force accuracy = 8.1207577e-05
  3d grid and FFT values/proc = 1728 150
Step Temp Atoms Density TotEng PotEng KinEng E_coul E_vdwl E_long E_bond E_angle E_dihed Enthalpy Press
14000   194.366644     1518     1.050313 -6211.256583 -7090.160941   878.904358 22732.882537  1217.096732 -31040.180346     0.040132     0.000003     0.000000 -1058.591466 23440.540046
Loop time of 2.69048e-06 on 27 procs for 0 steps with 1518 atoms

run 0 post no # return_position back to old
PPPM initialization ...
  G vector (1/distance) = 0.29832784
  grid = 15 15 15
  stencil order = 5
  estimated absolute RMS force accuracy = 0.026966089
  estimated relative force accuracy = 8.1207577e-05
  3d grid and FFT values/proc = 1728 150
Step Temp Atoms Density TotEng PotEng KinEng E_coul E_vdwl E_long E_bond E_angle E_dihed Enthalpy Press
14000   198.366034     1518     1.050313 -6339.469366 -7236.458521   896.989155 22660.410575  1189.134327 -31086.043558     0.040132     0.000003     0.000000 -1340.163328 22742.877856
Loop time of 2.80552e-06 on 27 procs for 0 steps with 1518 atoms

group widom_test         delete
group noneq_run          delete
group noneq_run_rigid    delete
reset_timestep 9000

group   solvent delete
group   water   delete
group   ions    delete
group   wall    delete
group   flying  delete
group   eq_run  delete

write_data restart_after_MC_8.data pair ij
System init for write_data ...
PPPM initialization ...
  G vector (1/distance) = 0.29832784
  grid = 15 15 15
  stencil order = 5
  estimated absolute RMS force accuracy = 0.026966089
  estimated relative force accuracy = 8.1207577e-05
  3d grid and FFT values/proc = 1728 150
log logfile_hneqMDMC.9
