group   solvent type 1 2
1500 atoms in group solvent
group   water   type 1 2
1500 atoms in group water
group   ions    type 3 4
18 atoms in group ions
group   wall    type 5 6 7
0 atoms in group wall
group   flying  type 8 9 10 11
0 atoms in group flying
group   eq_run  union solvent ions flying
1518 atoms in group eq_run

######################################################################
pair_style   lj/cut/coul/long 9.000000 9.000000
kspace_style pppm 0.0001

# LJ JC_SPCE (neq? False)
# real particles
pair_coeff  1 1     0.155354    3.169   9.0   # O O
pair_coeff  3 3     0.352644    2.1595  9.0   # Na Na
pair_coeff  4 4     0.0127851   4.8305  9.0   # Cl Cl
# flying particles
pair_coeff  8 8     0.155354    3.169   9.0   # O O
pair_coeff  10 10   0.352644    2.1595  9.0   # Na Na
pair_coeff  11 11   0.0127851   4.8305  9.0   # Cl Cl
# wall particles: not exist now
pair_coeff  * 5 0 0 9.0
pair_coeff  * 6 0 0 9.0
pair_coeff  * 7 0 0 9.0
# hydrogens
pair_coeff  * 2 0 0 9.0 # hydrogen
pair_coeff  * 9 0 0 9.0 # flying hydrogen

# intramolecular force field
bond_coeff  1   100000   1.0
angle_coeff 1   100000   109.470000

pair_modify  tail no shift yes mix arithmetic # LB mixing rule
neigh_modify delay 5 every 1 check yes page 500000 one 50000
######################################################################
fix fOHs        all    shake 0.00001 40 50000 b 1 a 1
       0 = # of size 2 clusters
       0 = # of size 3 clusters
       0 = # of size 4 clusters
     500 = # of frozen angles
  find clusters CPU = 0.001 seconds
timestep 2.000000
thermo 2000
fix  eqmd   eq_run npt temp 298.150000 298.150000 200.000000 iso 1.000000 1.000000 2000.000000
run 1000 # (neq? False) MD run
PPPM initialization ...
  G vector (1/distance) = 0.29772349
  grid = 15 15 15
  stencil order = 5
  estimated absolute RMS force accuracy = 0.02749581
  estimated relative force accuracy = 8.2802814e-05
  3d grid and FFT values/proc = 1728 150
SHAKE stats (type/ave/delta/count) on step 0
Step Temp Atoms Density TotEng PotEng KinEng E_coul E_vdwl E_long E_bond E_angle E_dihed Enthalpy Press
0   312.333699     1518     1.030083 -6247.670419 -7194.504973   946.834554 22607.827264  1222.491073 -31024.823310     0.000000     0.000000     0.000000 -6120.100306   569.164806
Loop time of 1.54581 on 27 procs for 1000 steps with 1518 atoms

unfix fOHs
unfix    eqmd

group   solvent type 1 2
1500 atoms in group solvent
group   water   type 1 2
1500 atoms in group water
group   ions    type 3 4
18 atoms in group ions
group   wall    type 5 6 7
0 atoms in group wall
group   flying  type 8 9 10 11
0 atoms in group flying
group   eq_run  union solvent ions flying
1518 atoms in group eq_run

######################################################################
pair_style   lj/cut/coul/long 9.000000 9.000000
kspace_style pppm 0.0001

# LJ JC_SPCE (neq? False)
# real particles
pair_coeff  1 1     0.155354    3.169   9.0   # O O
pair_coeff  3 3     0.352644    2.1595  9.0   # Na Na
pair_coeff  4 4     0.0127851   4.8305  9.0   # Cl Cl
# flying particles
pair_coeff  8 8     0.155354    3.169   9.0   # O O
pair_coeff  10 10   0.352644    2.1595  9.0   # Na Na
pair_coeff  11 11   0.0127851   4.8305  9.0   # Cl Cl
# wall particles: not exist now
pair_coeff  * 5 0 0 9.0
pair_coeff  * 6 0 0 9.0
pair_coeff  * 7 0 0 9.0
# hydrogens
pair_coeff  * 2 0 0 9.0 # hydrogen
pair_coeff  * 9 0 0 9.0 # flying hydrogen

# intramolecular force field
bond_coeff  1   100000   1.0
angle_coeff 1   100000   109.470000

pair_modify  tail no shift yes mix arithmetic # LB mixing rule
neigh_modify delay 5 every 1 check yes page 500000 one 50000
######################################################################
# shake is off; should be a dummy run
timestep 2.000000
thermo 2000
fix  eqmd   eq_run npt temp 298.150000 298.150000 200.000000 iso 1.000000 1.000000 2000.000000
run 0 # (neq? False) MD run
PPPM initialization ...
  G vector (1/distance) = 0.29783477
  grid = 15 15 15
  stencil order = 5
  estimated absolute RMS force accuracy = 0.027397586
  estimated relative force accuracy = 8.2507017e-05
  3d grid and FFT values/proc = 1728 150
Step Temp Atoms Density TotEng PotEng KinEng E_coul E_vdwl E_long E_bond E_angle E_dihed Enthalpy Press
1000   209.008880     1518     1.033775 -6286.198794 -7231.313716   945.114922 22574.219192  1234.693621 -31040.234466     0.007925     0.000013     0.000000  -380.328564 26443.997828
Loop time of 2.95196e-06 on 27 procs for 0 steps with 1518 atoms

unfix    eqmd
#The center (4.000000) and alpha (0.100000) of bimodal biasing function
create_atoms 10 single -6.534195 -7.235118 11.228763
Created 1 atoms
create_atoms 11 single -12.012573 -3.678916 7.564137
Created 1 atoms
set atom 1520 image 0 0 0
Setting atom values ...
  1 settings made for image
group   widom_test  type    10 11 # insert salt-pair
2 atoms in group widom_test
run 0 post no # temp=0.593298 unit_lj?=False velocity generated
PPPM initialization ...
  G vector (1/distance) = 0.29783477
  grid = 15 15 15
  stencil order = 5
  estimated absolute RMS force accuracy = 0.027379556
  estimated relative force accuracy = 8.2452718e-05
  3d grid and FFT values/proc = 1728 150
Step Temp Atoms Density TotEng PotEng KinEng E_coul E_vdwl E_long E_bond E_angle E_dihed Enthalpy Press
1000   208.767947     1520     1.040113 -6286.043670 -7231.313716   945.270046 22574.219180  1234.693621 -31040.234454     0.007925     0.000013     0.000000  -380.070023 26444.460883
Loop time of 2.57796e-06 on 27 procs for 0 steps with 1520 atoms

run 0 post no # temp=0.593298 unit_lj?=False velocity generated
PPPM initialization ...
  G vector (1/distance) = 0.29783477
  grid = 15 15 15
  stencil order = 5
  estimated absolute RMS force accuracy = 0.027379556
  estimated relative force accuracy = 8.2452718e-05
  3d grid and FFT values/proc = 1728 150
Step Temp Atoms Density TotEng PotEng KinEng E_coul E_vdwl E_long E_bond E_angle E_dihed Enthalpy Press
1000   208.889660     1520     1.040113 -6285.492573 -7231.313716   945.821143 22574.219180  1234.693621 -31040.234454     0.007925     0.000013     0.000000  -379.151528 26446.105936
Loop time of 2.73293e-06 on 27 procs for 0 steps with 1520 atoms

# generated_velocity_salt 1519 cation vel 0.000461 -0.002331 -0.000046
# generated_velocity_salt 1520 anion vel -0.000401 0.000730 0.003509
set type 10 charge 1.000000
Setting atom values ...
  1 settings made for charge
set type 11 charge -1.000000
Setting atom values ...
  1 settings made for charge
run 0 post no # insert flying molecule
PPPM initialization ...
  G vector (1/distance) = 0.29783477
  grid = 15 15 15
  stencil order = 5
  estimated absolute RMS force accuracy = 0.027477898
  estimated relative force accuracy = 8.2748874e-05
  3d grid and FFT values/proc = 1728 150
Step Temp Atoms Density TotEng PotEng KinEng E_coul E_vdwl E_long E_bond E_angle E_dihed Enthalpy Press
1000   208.889660     1520     1.040113 -6222.769452 -7168.590594   945.821143 22680.368363  1234.693621 -31083.660516     0.007925     0.000013     0.000000  -295.395125 26540.284106
Loop time of 2.58037e-06 on 27 procs for 0 steps with 1520 atoms

group noneq_run_rigid    intersect   all         water               # select_salt no selection
1500 atoms in group noneq_run_rigid
group noneq_run_pre      subtract    all         noneq_run_rigid     # select_salt no selection
20 atoms in group noneq_run_pre
group noneq_run          subtract    noneq_run_pre   widom_test      # select_salt no selection
18 atoms in group noneq_run
group noneq_run_pre      delete
run 0 post no # mom rev random number
PPPM initialization ...
  G vector (1/distance) = 0.29783477
  grid = 15 15 15
  stencil order = 5
  estimated absolute RMS force accuracy = 0.027477898
  estimated relative force accuracy = 8.2748874e-05
  3d grid and FFT values/proc = 1728 150
Step Temp Atoms Density TotEng PotEng KinEng E_coul E_vdwl E_long E_bond E_angle E_dihed Enthalpy Press
1000   208.889660     1520     1.040113 -6222.769452 -7168.590594   945.821143 22680.368363  1234.693621 -31083.660516     0.007925     0.000013     0.000000  -295.395125 26540.284106
Loop time of 2.60837e-06 on 27 procs for 0 steps with 1520 atoms

run 0 post no # momentum reversal applied
PPPM initialization ...
  G vector (1/distance) = 0.29783477
  grid = 15 15 15
  stencil order = 5
  estimated absolute RMS force accuracy = 0.027477898
  estimated relative force accuracy = 8.2748874e-05
  3d grid and FFT values/proc = 1728 150
Step Temp Atoms Density TotEng PotEng KinEng E_coul E_vdwl E_long E_bond E_angle E_dihed Enthalpy Press
1000   208.889660     1520     1.040113 -6222.769452 -7168.590594   945.821143 22680.368363  1234.693621 -31083.660516     0.007925     0.000013     0.000000  -295.395125 26540.284106
Loop time of 2.86189e-06 on 27 procs for 0 steps with 1520 atoms

######################################################################
pair_style   lj/cut/coul/long/neq 14.000000 14.000000 1000 5000 3.000000 7 1 0 1.000000 3.000000 11 1.000000
kspace_style pppm/neq 0.0001 1000 5000 3.000000 7 1 0 1.000000 3.000000 11 1.000000

# LJ JC_SPCE (neq? True)
# real particles
pair_coeff  1 1     0.155354    3.169   14.0   # O O
pair_coeff  3 3     0.352644    2.1595  14.0   # Na Na
pair_coeff  4 4     0.0127851   4.8305  14.0   # Cl Cl
# flying particles
pair_coeff  8 8     0.155354    3.169   14.0   # O O
pair_coeff  10 10   0.352644    2.1595  14.0   # Na Na
pair_coeff  11 11   0.0127851   4.8305  14.0   # Cl Cl
# wall particles: not exist now
pair_coeff  * 5 0 0 14.0
pair_coeff  * 6 0 0 14.0
pair_coeff  * 7 0 0 14.0
# hydrogens
pair_coeff  * 2 0 0 14.0 # hydrogen
pair_coeff  * 9 0 0 14.0 # flying hydrogen

# intramolecular force field
bond_coeff  1   100000   1.0
angle_coeff 1   100000   109.470000

pair_modify  tail no shift yes mix arithmetic # LB mixing rule
neigh_modify delay 4 every 1 check yes page 500000 one 50000
######################################################################
timestep 4.000000
fix  eqmd  noneq_run_rigid     rigid/nve molecule  # rigid water
  500 rigid bodies with 1500 atoms
fix  eqions  noneq_run           nve                 # nve for non-rigid
run 5000 # (neq? True) MD run
4D PPPM initialization ...
  G vector (1/distance) = 0.1936344
  grid = 10 10 10
  stencil order = 5
  estimated absolute RMS force accuracy = 0.01870323
  estimated relative force accuracy = 5.6324223e-05
  3d grid and FFT values/proc = 729 80
  update every 1 steps, delay 4 steps, check yes
Step Temp Atoms Density TotEng PotEng KinEng E_coul E_vdwl E_long E_bond E_angle E_dihed Enthalpy Press
1000   311.384475     1520     1.040113 12857.552133 11911.738778   945.813355 11728.632718  1190.656419 -1007.558296     0.007925     0.000013     0.000000 12726.898335  -585.012642
Loop time of 21.847 on 27 procs for 5000 steps with 1520 atoms

unfix    eqmd
unfix    eqions
run 0 post no # momentum reversal applied
4D PPPM initialization ...
  G vector (1/distance) = 0.1936344
  grid = 10 10 10
  stencil order = 5
  estimated absolute RMS force accuracy = 0.01870323
  estimated relative force accuracy = 5.6324223e-05
  3d grid and FFT values/proc = 729 80
Step Temp Atoms Density TotEng PotEng KinEng E_coul E_vdwl E_long E_bond E_angle E_dihed Enthalpy Press
6000   199.318845     1520     1.040113 -6495.231479 -7397.717405   902.485926 11686.582882  1180.697136 -20265.005360     0.007925     0.000013     0.000000  -723.170228 25844.857611
Loop time of 3.70741e-06 on 27 procs for 0 steps with 1520 atoms

group   solvent type 1 2
1500 atoms in group solvent
group   water   type 1 2
1500 atoms in group water
group   ions    type 3 4
18 atoms in group ions
group   wall    type 5 6 7
0 atoms in group wall
group   flying  type 8 9 10 11
2 atoms in group flying
group   eq_run  union solvent ions flying
1520 atoms in group eq_run

######################################################################
pair_style   lj/cut/coul/long 9.000000 9.000000
kspace_style pppm 0.0001

# LJ JC_SPCE (neq? False)
# real particles
pair_coeff  1 1     0.155354    3.169   9.0   # O O
pair_coeff  3 3     0.352644    2.1595  9.0   # Na Na
pair_coeff  4 4     0.0127851   4.8305  9.0   # Cl Cl
# flying particles
pair_coeff  8 8     0.155354    3.169   9.0   # O O
pair_coeff  10 10   0.352644    2.1595  9.0   # Na Na
pair_coeff  11 11   0.0127851   4.8305  9.0   # Cl Cl
# wall particles: not exist now
pair_coeff  * 5 0 0 9.0
pair_coeff  * 6 0 0 9.0
pair_coeff  * 7 0 0 9.0
# hydrogens
pair_coeff  * 2 0 0 9.0 # hydrogen
pair_coeff  * 9 0 0 9.0 # flying hydrogen

# intramolecular force field
bond_coeff  1   100000   1.0
angle_coeff 1   100000   109.470000

pair_modify  tail no shift yes mix arithmetic # LB mixing rule
neigh_modify delay 5 every 1 check yes page 500000 one 50000
######################################################################
run 0 post no # update forcefield; return to Eq
PPPM initialization ...
  G vector (1/distance) = 0.29783477
  grid = 15 15 15
  stencil order = 5
  estimated absolute RMS force accuracy = 0.027477898
  estimated relative force accuracy = 8.2748874e-05
  3d grid and FFT values/proc = 1728 150
  update every 1 steps, delay 5 steps, check yes
Step Temp Atoms Density TotEng PotEng KinEng E_coul E_vdwl E_long E_bond E_angle E_dihed Enthalpy Press
6000   199.318845     1520     1.040113 -6448.869871 -7351.355797   902.485926 22566.508191  1226.665516 -31144.537440     0.007925     0.000013     0.000000  -629.601073 26056.233112
Loop time of 2.77126e-06 on 27 procs for 0 steps with 1520 atoms

# done post_propagate after NEMD
# selected salt 1519/1520
#The center of bimodal dist. on a positive side=4.000000
delete_atoms group widom_test compress no bond yes mol yes # reject_insert
Deleted 2 atoms, new total = 1518
Deleted 0 bonds, new total = 1000
Deleted 0 angles, new total = 500
run 0 post no # delete trial-inserted flying molecule
PPPM initialization ...
  G vector (1/distance) = 0.29783477
  grid = 15 15 15
  stencil order = 5
  estimated absolute RMS force accuracy = 0.027397586
  estimated relative force accuracy = 8.2507017e-05
  3d grid and FFT values/proc = 1728 150
Step Temp Atoms Density TotEng PotEng KinEng E_coul E_vdwl E_long E_bond E_angle E_dihed Enthalpy Press
6000   199.425447     1518     1.033775 -6147.874792 -7049.654497   901.779705 22717.811326  1215.231455 -30982.705215     0.007925     0.000013     0.000000  -296.525700 26199.875149
Loop time of 3.2777e-06 on 27 procs for 0 steps with 1518 atoms

run 0 post no # return_position back to old
PPPM initialization ...
  G vector (1/distance) = 0.29783477
  grid = 15 15 15
  stencil order = 5
  estimated absolute RMS force accuracy = 0.027397586
  estimated relative force accuracy = 8.2507017e-05
  3d grid and FFT values/proc = 1728 150
Step Temp Atoms Density TotEng PotEng KinEng E_coul E_vdwl E_long E_bond E_angle E_dihed Enthalpy Press
6000   209.008880     1518     1.033775 -6286.198754 -7231.313676   945.114922 22574.219192  1234.693661 -31040.234466     0.007925     0.000013     0.000000  -380.328211 26443.999228
Loop time of 2.79067e-06 on 27 procs for 0 steps with 1518 atoms

group widom_test         delete
group noneq_run          delete
group noneq_run_rigid    delete
reset_timestep 1000

group   solvent delete
group   water   delete
group   ions    delete
group   wall    delete
group   flying  delete
group   eq_run  delete

write_data restart_after_MC_0.data pair ij
System init for write_data ...
PPPM initialization ...
  G vector (1/distance) = 0.29783477
  grid = 15 15 15
  stencil order = 5
  estimated absolute RMS force accuracy = 0.027397586
  estimated relative force accuracy = 8.2507017e-05
  3d grid and FFT values/proc = 1728 150
log logfile_hneqMDMC.1
