group   solvent type 1 2
1500 atoms in group solvent
group   water   type 1 2
1500 atoms in group water
group   ions    type 3 4
18 atoms in group ions
group   wall    type 5 6 7
0 atoms in group wall
group   flying  type 8 9 10 11
0 atoms in group flying
group   eq_run  union solvent ions flying
1518 atoms in group eq_run

######################################################################
pair_style   lj/cut/coul/long 9.000000 9.000000
kspace_style pppm 0.0001

# LJ JC_SPCE (neq? False)
# real particles
pair_coeff  1 1     0.155354    3.169   9.0   # O O
pair_coeff  3 3     0.352644    2.1595  9.0   # Na Na
pair_coeff  4 4     0.0127851   4.8305  9.0   # Cl Cl
# flying particles
pair_coeff  8 8     0.155354    3.169   9.0   # O O
pair_coeff  10 10   0.352644    2.1595  9.0   # Na Na
pair_coeff  11 11   0.0127851   4.8305  9.0   # Cl Cl
# wall particles: not exist now
pair_coeff  * 5 0 0 9.0
pair_coeff  * 6 0 0 9.0
pair_coeff  * 7 0 0 9.0
# hydrogens
pair_coeff  * 2 0 0 9.0 # hydrogen
pair_coeff  * 9 0 0 9.0 # flying hydrogen

# intramolecular force field
bond_coeff  1   100000   1.0
angle_coeff 1   100000   109.470000

pair_modify  tail no shift yes mix arithmetic # LB mixing rule
neigh_modify delay 5 every 1 check yes page 500000 one 50000
######################################################################
fix fOHs        all    shake 0.00001 40 50000 b 1 a 1
       0 = # of size 2 clusters
       0 = # of size 3 clusters
       0 = # of size 4 clusters
     500 = # of frozen angles
  find clusters CPU = 0.001 seconds
timestep 2.000000
thermo 2000
fix  eqmd   eq_run npt temp 298.150000 298.150000 200.000000 iso 1.000000 1.000000 2000.000000
run 1000 # (neq? False) MD run
PPPM initialization ...
  G vector (1/distance) = 0.2976179
  grid = 15 15 15
  stencil order = 5
  estimated absolute RMS force accuracy = 0.027589305
  estimated relative force accuracy = 8.3084373e-05
  3d grid and FFT values/proc = 1728 150
SHAKE stats (type/ave/delta/count) on step 2000
Step Temp Atoms Density TotEng PotEng KinEng E_coul E_vdwl E_long E_bond E_angle E_dihed Enthalpy Press
2000   312.778950     1518     1.026592 -6271.464744 -7219.649070   948.184327 22569.478834  1220.646496 -31009.774401     0.000000     0.000000     0.000000 -6197.469935   329.015289
Loop time of 1.56469 on 27 procs for 1000 steps with 1518 atoms

unfix fOHs
unfix    eqmd

group   solvent type 1 2
1500 atoms in group solvent
group   water   type 1 2
1500 atoms in group water
group   ions    type 3 4
18 atoms in group ions
group   wall    type 5 6 7
0 atoms in group wall
group   flying  type 8 9 10 11
0 atoms in group flying
group   eq_run  union solvent ions flying
1518 atoms in group eq_run

######################################################################
pair_style   lj/cut/coul/long 9.000000 9.000000
kspace_style pppm 0.0001

# LJ JC_SPCE (neq? False)
# real particles
pair_coeff  1 1     0.155354    3.169   9.0   # O O
pair_coeff  3 3     0.352644    2.1595  9.0   # Na Na
pair_coeff  4 4     0.0127851   4.8305  9.0   # Cl Cl
# flying particles
pair_coeff  8 8     0.155354    3.169   9.0   # O O
pair_coeff  10 10   0.352644    2.1595  9.0   # Na Na
pair_coeff  11 11   0.0127851   4.8305  9.0   # Cl Cl
# wall particles: not exist now
pair_coeff  * 5 0 0 9.0
pair_coeff  * 6 0 0 9.0
pair_coeff  * 7 0 0 9.0
# hydrogens
pair_coeff  * 2 0 0 9.0 # hydrogen
pair_coeff  * 9 0 0 9.0 # flying hydrogen

# intramolecular force field
bond_coeff  1   100000   1.0
angle_coeff 1   100000   109.470000

pair_modify  tail no shift yes mix arithmetic # LB mixing rule
neigh_modify delay 5 every 1 check yes page 500000 one 50000
######################################################################
# shake is off; should be a dummy run
timestep 2.000000
thermo 2000
fix  eqmd   eq_run npt temp 298.150000 298.150000 200.000000 iso 1.000000 1.000000 2000.000000
run 0 # (neq? False) MD run
PPPM initialization ...
  G vector (1/distance) = 0.29787974
  grid = 15 15 15
  stencil order = 5
  estimated absolute RMS force accuracy = 0.027357978
  estimated relative force accuracy = 8.2387738e-05
  3d grid and FFT values/proc = 1728 150
Step Temp Atoms Density TotEng PotEng KinEng E_coul E_vdwl E_long E_bond E_angle E_dihed Enthalpy Press
3000   191.262942     1518     1.035272 -6394.129362 -7258.999124   864.869762 22522.177148  1257.323838 -31038.500137     0.000014     0.000012     0.000000   126.166126 29237.398365
Loop time of 2.85611e-06 on 27 procs for 0 steps with 1518 atoms

unfix    eqmd
#The center (4.000000) and alpha (0.100000) of bimodal biasing function
create_atoms 10 single 8.823085 -11.031630 -2.617991
Created 1 atoms
create_atoms 11 single 2.989161 -7.167782 -7.695156
Created 1 atoms
set atom 1520 image 0 0 0
Setting atom values ...
  1 settings made for image
group   widom_test  type    10 11 # insert salt-pair
2 atoms in group widom_test
run 0 post no # temp=0.593298 unit_lj?=False velocity generated
PPPM initialization ...
  G vector (1/distance) = 0.29787974
  grid = 15 15 15
  stencil order = 5
  estimated absolute RMS force accuracy = 0.027339973
  estimated relative force accuracy = 8.2333518e-05
  3d grid and FFT values/proc = 1728 150
Step Temp Atoms Density TotEng PotEng KinEng E_coul E_vdwl E_long E_bond E_angle E_dihed Enthalpy Press
3000   191.215179     1520     1.041618 20070012.772381 20069146.978642   865.793739 22522.177137 20077663.301604 -31038.500125     0.000014     0.000012     0.000000 100385988.232790 360141679.762311
Loop time of 2.75767e-06 on 27 procs for 0 steps with 1520 atoms

run 0 post no # temp=0.593298 unit_lj?=False velocity generated
PPPM initialization ...
  G vector (1/distance) = 0.29787974
  grid = 15 15 15
  stencil order = 5
  estimated absolute RMS force accuracy = 0.027339973
  estimated relative force accuracy = 8.2333518e-05
  3d grid and FFT values/proc = 1728 150
Step Temp Atoms Density TotEng PotEng KinEng E_coul E_vdwl E_long E_bond E_angle E_dihed Enthalpy Press
3000   191.313714     1520     1.041618 20070013.218533 20069146.978642   866.239891 22522.177137 20077663.301604 -31038.500125     0.000014     0.000012     0.000000 100385988.976377 360141681.096026
Loop time of 2.99541e-06 on 27 procs for 0 steps with 1520 atoms

# generated_velocity_salt 1519 cation vel -0.001270 -0.005622 0.000646
# generated_velocity_salt 1520 anion vel 0.000554 0.001784 -0.002654
set type 10 charge 1.000000
Setting atom values ...
  1 settings made for charge
set type 11 charge -1.000000
Setting atom values ...
  1 settings made for charge
run 0 post no # insert flying molecule
PPPM initialization ...
  G vector (1/distance) = 0.29787974
  grid = 15 15 15
  stencil order = 5
  estimated absolute RMS force accuracy = 0.027438174
  estimated relative force accuracy = 8.2629245e-05
  3d grid and FFT values/proc = 1728 150
Step Temp Atoms Density TotEng PotEng KinEng E_coul E_vdwl E_long E_bond E_angle E_dihed Enthalpy Press
3000   191.313714     1520     1.041618 20070072.831204 20069206.591313   866.239891 22622.043706 20077663.301604 -31078.754023     0.000014     0.000012     0.000000 100386068.440969 360141770.113239
Loop time of 2.69063e-06 on 27 procs for 0 steps with 1520 atoms

group noneq_run_rigid    intersect   all         water               # select_salt no selection
1500 atoms in group noneq_run_rigid
group noneq_run_pre      subtract    all         noneq_run_rigid     # select_salt no selection
20 atoms in group noneq_run_pre
group noneq_run          subtract    noneq_run_pre   widom_test      # select_salt no selection
18 atoms in group noneq_run
group noneq_run_pre      delete
run 0 post no # mom rev random number
PPPM initialization ...
  G vector (1/distance) = 0.29787974
  grid = 15 15 15
  stencil order = 5
  estimated absolute RMS force accuracy = 0.027438174
  estimated relative force accuracy = 8.2629245e-05
  3d grid and FFT values/proc = 1728 150
Step Temp Atoms Density TotEng PotEng KinEng E_coul E_vdwl E_long E_bond E_angle E_dihed Enthalpy Press
3000   191.313714     1520     1.041618 20070072.831204 20069206.591313   866.239891 22622.043706 20077663.301604 -31078.754023     0.000014     0.000012     0.000000 100386068.440969 360141770.113239
Loop time of 2.81944e-06 on 27 procs for 0 steps with 1520 atoms

######################################################################
pair_style   lj/cut/coul/long/neq 14.000000 14.000000 3000 5000 3.000000 7 1 0 1.000000 3.000000 11 1.000000
kspace_style pppm/neq 0.0001 3000 5000 3.000000 7 1 0 1.000000 3.000000 11 1.000000

# LJ JC_SPCE (neq? True)
# real particles
pair_coeff  1 1     0.155354    3.169   14.0   # O O
pair_coeff  3 3     0.352644    2.1595  14.0   # Na Na
pair_coeff  4 4     0.0127851   4.8305  14.0   # Cl Cl
# flying particles
pair_coeff  8 8     0.155354    3.169   14.0   # O O
pair_coeff  10 10   0.352644    2.1595  14.0   # Na Na
pair_coeff  11 11   0.0127851   4.8305  14.0   # Cl Cl
# wall particles: not exist now
pair_coeff  * 5 0 0 14.0
pair_coeff  * 6 0 0 14.0
pair_coeff  * 7 0 0 14.0
# hydrogens
pair_coeff  * 2 0 0 14.0 # hydrogen
pair_coeff  * 9 0 0 14.0 # flying hydrogen

# intramolecular force field
bond_coeff  1   100000   1.0
angle_coeff 1   100000   109.470000

pair_modify  tail no shift yes mix arithmetic # LB mixing rule
neigh_modify delay 4 every 1 check yes page 500000 one 50000
######################################################################
timestep 4.000000
fix  eqmd  noneq_run_rigid     rigid/nve molecule  # rigid water
  500 rigid bodies with 1500 atoms
fix  eqions  noneq_run           nve                 # nve for non-rigid
run 5000 # (neq? True) MD run
4D PPPM initialization ...
  G vector (1/distance) = 0.19366302
  grid = 10 10 10
  stencil order = 5
  estimated absolute RMS force accuracy = 0.01867614
  estimated relative force accuracy = 5.624264e-05
  3d grid and FFT values/proc = 729 80
  update every 1 steps, delay 4 steps, check yes
Step Temp Atoms Density TotEng PotEng KinEng E_coul E_vdwl E_long E_bond E_angle E_dihed Enthalpy Press
3000   285.184228     1520     1.041618 12749.313837 11883.082304   866.231532 11677.956769  1212.526857 -1007.401348     0.000014     0.000012     0.000000 13244.722621  2221.442878
Loop time of 21.5013 on 27 procs for 5000 steps with 1520 atoms

unfix    eqmd
unfix    eqions

group   solvent type 1 2
1500 atoms in group solvent
group   water   type 1 2
1500 atoms in group water
group   ions    type 3 4
18 atoms in group ions
group   wall    type 5 6 7
0 atoms in group wall
group   flying  type 8 9 10 11
2 atoms in group flying
group   eq_run  union solvent ions flying
1520 atoms in group eq_run

######################################################################
pair_style   lj/cut/coul/long 9.000000 9.000000
kspace_style pppm 0.0001

# LJ JC_SPCE (neq? False)
# real particles
pair_coeff  1 1     0.155354    3.169   9.0   # O O
pair_coeff  3 3     0.352644    2.1595  9.0   # Na Na
pair_coeff  4 4     0.0127851   4.8305  9.0   # Cl Cl
# flying particles
pair_coeff  8 8     0.155354    3.169   9.0   # O O
pair_coeff  10 10   0.352644    2.1595  9.0   # Na Na
pair_coeff  11 11   0.0127851   4.8305  9.0   # Cl Cl
# wall particles: not exist now
pair_coeff  * 5 0 0 9.0
pair_coeff  * 6 0 0 9.0
pair_coeff  * 7 0 0 9.0
# hydrogens
pair_coeff  * 2 0 0 9.0 # hydrogen
pair_coeff  * 9 0 0 9.0 # flying hydrogen

# intramolecular force field
bond_coeff  1   100000   1.0
angle_coeff 1   100000   109.470000

pair_modify  tail no shift yes mix arithmetic # LB mixing rule
neigh_modify delay 5 every 1 check yes page 500000 one 50000
######################################################################
run 0 post no # update forcefield; return to Eq
PPPM initialization ...
  G vector (1/distance) = 0.29787974
  grid = 15 15 15
  stencil order = 5
  estimated absolute RMS force accuracy = 0.027438174
  estimated relative force accuracy = 8.2629245e-05
  3d grid and FFT values/proc = 1728 150
  update every 1 steps, delay 5 steps, check yes
Step Temp Atoms Density TotEng PotEng KinEng E_coul E_vdwl E_long E_bond E_angle E_dihed Enthalpy Press
8000   190.156101     1520     1.041618 -6564.474412 -7425.472802   860.998390 22478.973506  1248.720791 -31153.167126     0.000014     0.000012     0.000000  -122.478425 28886.298678
Loop time of 2.80556e-06 on 27 procs for 0 steps with 1520 atoms

# done post_propagate after NEMD
# selected salt 1519/1520
#The center of bimodal dist. on a positive side=4.000000
delete_atoms group widom_test compress no bond yes mol yes # reject_insert
Deleted 2 atoms, new total = 1518
Deleted 0 bonds, new total = 1000
Deleted 0 angles, new total = 500
run 0 post no # delete trial-inserted flying molecule
PPPM initialization ...
  G vector (1/distance) = 0.29787974
  grid = 15 15 15
  stencil order = 5
  estimated absolute RMS force accuracy = 0.027357978
  estimated relative force accuracy = 8.2387738e-05
  3d grid and FFT values/proc = 1728 150
Step Temp Atoms Density TotEng PotEng KinEng E_coul E_vdwl E_long E_bond E_angle E_dihed Enthalpy Press
8000   190.103802     1518     1.035272 -6238.587059 -7098.215320   859.628261 22655.220018  1225.902810 -30979.338174     0.000014     0.000012     0.000000   198.013014 28862.103073
Loop time of 3.94596e-06 on 27 procs for 0 steps with 1518 atoms

run 0 post no # return_position back to old
PPPM initialization ...
  G vector (1/distance) = 0.29787974
  grid = 15 15 15
  stencil order = 5
  estimated absolute RMS force accuracy = 0.027357978
  estimated relative force accuracy = 8.2387738e-05
  3d grid and FFT values/proc = 1728 150
Step Temp Atoms Density TotEng PotEng KinEng E_coul E_vdwl E_long E_bond E_angle E_dihed Enthalpy Press
8000   191.262942     1518     1.035272 -6394.129361 -7258.999123   864.869762 22522.177148  1257.323838 -31038.500136     0.000014     0.000012     0.000000   126.166126 29237.398359
Loop time of 3.00278e-06 on 27 procs for 0 steps with 1518 atoms

group widom_test         delete
group noneq_run          delete
group noneq_run_rigid    delete
reset_timestep 3000

group   solvent delete
group   water   delete
group   ions    delete
group   wall    delete
group   flying  delete
group   eq_run  delete

write_data restart_after_MC_2.data pair ij
System init for write_data ...
PPPM initialization ...
  G vector (1/distance) = 0.29787974
  grid = 15 15 15
  stencil order = 5
  estimated absolute RMS force accuracy = 0.027357978
  estimated relative force accuracy = 8.2387738e-05
  3d grid and FFT values/proc = 1728 150
log logfile_hneqMDMC.3
